
Circuit: *

Doing analysis at TEMP = 27.000000 and TNOM = 27.000000


No. of Data Rows : 1
********************************************
Operating point
********************************************
op_TAB
@gb[i] = -2.86455e-04
@id[current] = 1.029587e-03
@r1[i] = 2.732478e-04
@r2[i] = -2.86455e-04
@r3[i] = -1.32073e-05
@r4[i] = 1.229564e-03
@r5[i] = 1.316042e-03
@r6[i] = 9.563162e-04
@r7[i] = 9.563162e-04
v(1) = 8.194795e+00
v(2) = 7.917828e+00
v(3) = 7.340169e+00
v(4) = 2.978754e+00
v(5) = 7.957540e+00
v(6) = 1.197664e+01
v(7) = 9.776608e-01
v(8) = 9.776608e-01
hc#branch = 7.327105e-05
va#branch = -2.73248e-04
vaux#branch = 9.563162e-04
op_END
ngspice-31 done
