
Circuit: *

Doing analysis at TEMP = 27.000000 and TNOM = 27.000000


No. of Data Rows : 1
********************************************
FREQUENCY ANALYSIS - QUESTION 5
********************************************
Doing analysis at TEMP = 27.000000 and TNOM = 27.000000


No. of Data Rows : 901

The file "sim5_db.ps" may be printed on a postscript printer.
sim5_db_FIG

The file "sim5_ph.ps" may be printed on a postscript printer.
sim5_db_FIG
ngspice-31 done
