
Circuit: *

Doing analysis at TEMP = 27.000000 and TNOM = 27.000000


No. of Data Rows : 1
********************************************
TRANSIENT ANALYSIS - FORCED SOLUTION
********************************************
Doing analysis at TEMP = 27.000000 and TNOM = 27.000000


Initial Transient Solution
--------------------------

Node                                   Voltage
----                                   -------
1                                            0
2                                      5.81214
3                                      17.9343
5                                      4.97878
6                                       5.8536
9                                            0
7                                     -2.00109
8                                     -2.97875
hd#branch                         -0.000671387
vaux#branch                        0.000956316
vs#branch                            0.0057341


No. of Data Rows : 2008

The file "sim4.ps" may be printed on a postscript printer.
sim4_FIG
ngspice-31 done
