
Circuit: *

Doing analysis at TEMP = 27.000000 and TNOM = 27.000000


No. of Data Rows : 1
****************************************************
RESULTS NGSPICE SIMULATION GROUP 37 LAB 2 QUESTION 1
****************************************************
op_TAB
@gb[i] = -2.86455e-04
@r1[i] = 2.732477e-04
@r2[i] = -2.86455e-04
@r3[i] = -1.32073e-05
@r4[i] = 1.229564e-03
@r5[i] = -2.86455e-04
@r6[i] = 9.563162e-04
@r7[i] = 9.563162e-04
v(1) = 5.216040e+00
v(2) = 4.939074e+00
v(3) = 4.361415e+00
v(5) = 4.978786e+00
v(6) = 5.853598e+00
v(7) = -2.00109e+00
v(8) = -2.97875e+00
v(9) = 0.000000e+00
hd#branch = -9.56316e-04
vaux#branch = 9.563162e-04
vs#branch = -2.73248e-04
op_END
ngspice-31 done
