
Circuit: *

Doing analysis at TEMP = 27.000000 and TNOM = 27.000000


No. of Data Rows : 1
********************************************
Transient analysis
********************************************
Doing analysis at TEMP = 27.000000 and TNOM = 27.000000


Initial Transient Solution
--------------------------

Node                                   Voltage
----                                   -------
1                                      4.97878
2                                      4.97878
3                                      4.97878
5                                      4.97878
6                                       5.8536
9                                            0
7                                     -2.00109
8                                     -2.97875
hd#branch                         -0.000946045
vaux#branch                        0.000956316


No. of Data Rows : 2008

The file "sim_3.ps" may be printed on a postscript printer.
sim_3_FIG
ngspice-31 done
