
Circuit: *

Doing analysis at TEMP = 27.000000 and TNOM = 27.000000


No. of Data Rows : 1
****************************************************
RESULTS NGSPICE SIMULATION GROUP 37 LAB1 QUESTION 2
****************************************************
op2_TAB
@gb[i] = 0.000000e+00
@r1[i] = 0.000000e+00
@r2[i] = 0.000000e+00
@r3[i] = 0.000000e+00
@r4[i] = 0.000000e+00
@r5[i] = -1.63724e-02
@r6[i] = 0.000000e+00
@r7[i] = 0.000000e+00
v(1) = 0.000000e+00
v(2) = 0.000000e+00
v(3) = 0.000000e+00
v(5) = 0.000000e+00
v(6) = 5.000000e+01
v(7) = 0.000000e+00
v(8) = 0.000000e+00
v(9) = 0.000000e+00
hd#branch = 1.637237e-02
vaux#branch = 0.000000e+00
vx#branch = -1.63724e-02
(v(6)-v(8))/vx#branch = -3.05393e+03
op2_END
ngspice-31 done
