
Circuit: .options savecurrents

false = 0.000000e+00
true = 1.000000e+00
boltz = 1.380649e-23
c = 2.997925e+08
e = 2.718282e+00
echarge = 1.602177e-19
i = 0.000000e+00,1.000000e+00
kelvin = -2.73150e+02
no = 0.000000e+00
pi = 3.141593e+00
planck = 6.626070e-34
yes = 1.000000e+00
Doing analysis at TEMP = 27.000000 and TNOM = 27.000000


No. of Data Rows : 1
**************
NPN_TAB
VCE = 4.85957
VBE = 0.655046
VCE>VBE = Correct F.A.R
NPN_END
**************
PNP_TAB
VCE = 5.71266
VEB = 0.707372
VEC>VEB = Correct F.A.R
PNP_END
Doing analysis at TEMP = 27.000000 and TNOM = 27.000000


Initial Transient Solution
--------------------------

Node                                   Voltage
----                                   -------
vcc                                         12
in                                           0
in2                                          0
base                                  0.800761
coll                                   5.00529
emit                                  0.145714
emit2                                  5.71266
out                                          0
vin#branch                                   0
vcc#branch                           -0.012167


No. of Data Rows : 1008

The file "vo1.ps" may be printed on a postscript printer.
Doing analysis at TEMP = 27.000000 and TNOM = 27.000000


No. of Data Rows : 81

The file "vo1f.ps" may be printed on a postscript printer.

The file "vo2f.ps" may be printed on a postscript printer.
                             .options savecurrents
                             AC Analysis  Sun May 23 17:01:21  2021
--------------------------------------------------------------------------------
Index   frequency       base                            
--------------------------------------------------------------------------------
0	1.000000e+00	9.497521e-01,	7.865909e-02	
1	1.258925e+00	9.521642e-01,	6.198432e-02	
2	1.584893e+00	9.536280e-01,	4.849420e-02	
3	1.995262e+00	9.544541e-01,	3.754136e-02	
4	2.511886e+00	9.548240e-01,	2.859015e-02	
5	3.162278e+00	9.548306e-01,	2.120877e-02	
6	3.981072e+00	9.545055e-01,	1.506183e-02	
7	5.011872e+00	9.538408e-01,	9.906313e-03	
8	6.309573e+00	9.528113e-01,	5.589857e-03	
9	7.943282e+00	9.514035e-01,	2.046460e-03	
10	1.000000e+01	9.496514e-01,	-7.21586e-04	
11	1.258925e+01	9.476652e-01,	-2.68732e-03	
12	1.584893e+01	9.456264e-01,	-3.86260e-03	
13	1.995262e+01	9.437350e-01,	-4.34467e-03	
14	2.511886e+01	9.421394e-01,	-4.30850e-03	
15	3.162278e+01	9.408984e-01,	-3.95342e-03	
16	3.981072e+01	9.399932e-01,	-3.44922e-03	
17	5.011872e+01	9.393634e-01,	-2.91188e-03	
18	6.309573e+01	9.389397e-01,	-2.40664e-03	
19	7.943282e+01	9.386609e-01,	-1.96273e-03	
20	1.000000e+02	9.384803e-01,	-1.58804e-03	
21	1.258925e+02	9.383643e-01,	-1.27963e-03	
22	1.584893e+02	9.382903e-01,	-1.02999e-03	
23	1.995262e+02	9.382434e-01,	-8.30449e-04	
24	2.511886e+02	9.382136e-01,	-6.72721e-04	
25	3.162278e+02	9.381947e-01,	-5.49606e-04	
26	3.981072e+02	9.381828e-01,	-4.55149e-04	
27	5.011872e+02	9.381753e-01,	-3.84624e-04	
28	6.309573e+02	9.381705e-01,	-3.34428e-04	
29	7.943282e+02	9.381675e-01,	-3.01965e-04	
30	1.000000e+03	9.381656e-01,	-2.85543e-04	
31	1.258925e+03	9.381643e-01,	-2.84308e-04	
32	1.584893e+03	9.381635e-01,	-2.98204e-04	
33	1.995262e+03	9.381629e-01,	-3.27976e-04	
34	2.511886e+03	9.381625e-01,	-3.75210e-04	
35	3.162278e+03	9.381620e-01,	-4.42425e-04	
36	3.981072e+03	9.381615e-01,	-5.33199e-04	
37	5.011872e+03	9.381607e-01,	-6.52365e-04	
38	6.309573e+03	9.381596e-01,	-8.06269e-04	
39	7.943282e+03	9.381578e-01,	-1.00310e-03	
40	1.000000e+04	9.381551e-01,	-1.25334e-03	
41	1.258925e+04	9.381508e-01,	-1.57030e-03	
42	1.584893e+04	9.381439e-01,	-1.97083e-03	
43	1.995262e+04	9.381331e-01,	-2.47622e-03	
44	2.511886e+04	9.381159e-01,	-3.11326e-03	
45	3.162278e+04	9.380887e-01,	-3.91568e-03	
46	3.981072e+04	9.380457e-01,	-4.92581e-03	
47	5.011872e+04	9.379775e-01,	-6.19661e-03	
48	6.309573e+04	9.378696e-01,	-7.79415e-03	
49	7.943282e+04	9.376990e-01,	-9.80027e-03	
50	1.000000e+05	9.374297e-01,	-1.23154e-02	
51	1.258925e+05	9.370054e-01,	-1.54609e-02	
52	1.584893e+05	9.363395e-01,	-1.93795e-02	
53	1.995262e+05	9.353000e-01,	-2.42318e-02	
54	2.511886e+05	9.336913e-01,	-3.01842e-02	

Index   frequency       base                            
--------------------------------------------------------------------------------
55	3.162278e+05	9.312346e-01,	-3.73818e-02	
56	3.981072e+05	9.275578e-01,	-4.58986e-02	
57	5.011872e+05	9.222171e-01,	-5.56621e-02	
58	6.309573e+05	9.147849e-01,	-6.63720e-02	
59	7.943282e+05	9.050280e-01,	-7.74744e-02	
60	1.000000e+06	8.931328e-01,	-8.82950e-02	
61	1.258925e+06	8.798143e-01,	-9.83778e-02	
62	1.584893e+06	8.661181e-01,	-1.07888e-01	
63	1.995262e+06	8.529386e-01,	-1.17775e-01	
64	2.511886e+06	8.405532e-01,	-1.29560e-01	
65	3.162278e+06	8.284319e-01,	-1.44914e-01	
66	3.981072e+06	8.152881e-01,	-1.65314e-01	
67	5.011872e+06	7.991755e-01,	-1.91825e-01	
68	6.309573e+06	7.775256e-01,	-2.24890e-01	
69	7.943282e+06	7.471935e-01,	-2.63971e-01	
70	1.000000e+07	7.047349e-01,	-3.06986e-01	
71	1.258925e+07	6.472140e-01,	-3.49738e-01	
72	1.584893e+07	5.736869e-01,	-3.85862e-01	
73	1.995262e+07	4.868819e-01,	-4.08064e-01	
74	2.511886e+07	3.937337e-01,	-4.10800e-01	
75	3.162278e+07	3.035621e-01,	-3.92985e-01	
76	3.981072e+07	2.245952e-01,	-3.58554e-01	
77	5.011872e+07	1.612930e-01,	-3.14358e-01	
78	6.309573e+07	1.140516e-01,	-2.67221e-01	
79	7.943282e+07	8.064575e-02,	-2.22103e-01	
80	1.000000e+08	5.791369e-02,	-1.81745e-01	

                             .options savecurrents
                             AC Analysis  Sun May 23 17:01:21  2021
--------------------------------------------------------------------------------
Index   frequency       coll                            
--------------------------------------------------------------------------------
0	1.000000e+00	-3.84640e+01,	-1.38839e+01	
1	1.258925e+00	-3.97130e+01,	-1.58151e+01	
2	1.584893e+00	-4.15322e+01,	-1.83082e+01	
3	1.995262e+00	-4.41945e+01,	-2.12617e+01	
4	2.511886e+00	-4.80075e+01,	-2.44292e+01	
5	3.162278e+00	-5.32341e+01,	-2.73456e+01	
6	3.981072e+00	-5.99276e+01,	-2.92986e+01	
7	5.011872e+00	-6.77105e+01,	-2.94435e+01	
8	6.309573e+00	-7.56434e+01,	-2.71315e+01	
9	7.943282e+00	-8.24028e+01,	-2.23413e+01	
10	1.000000e+01	-8.68095e+01,	-1.58851e+01	
11	1.258925e+01	-8.83949e+01,	-9.12716e+00	
12	1.584893e+01	-8.75713e+01,	-3.35978e+00	
13	1.995262e+01	-8.53014e+01,	7.092901e-01	
14	2.511886e+01	-8.25727e+01,	3.047335e+00	
15	3.162278e+01	-8.00516e+01,	4.041264e+00	
16	3.981072e+01	-7.80303e+01,	4.180764e+00	
17	5.011872e+01	-7.65448e+01,	3.868707e+00	
18	6.309573e+01	-7.55117e+01,	3.370272e+00	
19	7.943282e+01	-7.48183e+01,	2.834691e+00	
20	1.000000e+02	-7.43632e+01,	2.334554e+00	
21	1.258925e+02	-7.40688e+01,	1.898511e+00	
22	1.584893e+02	-7.38801e+01,	1.532616e+00	
23	1.995262e+02	-7.37598e+01,	1.232576e+00	
24	2.511886e+02	-7.36835e+01,	9.901948e-01	
25	3.162278e+02	-7.36351e+01,	7.965197e-01	
26	3.981072e+02	-7.36045e+01,	6.432368e-01	
27	5.011872e+02	-7.35852e+01,	5.231908e-01	
28	6.309573e+02	-7.35730e+01,	4.304957e-01	
29	7.943282e+02	-7.35652e+01,	3.604697e-01	
30	1.000000e+03	-7.35604e+01,	3.095116e-01	
31	1.258925e+03	-7.35572e+01,	2.749715e-01	
32	1.584893e+03	-7.35553e+01,	2.550424e-01	
33	1.995262e+03	-7.35540e+01,	2.486790e-01	
34	2.511886e+03	-7.35531e+01,	2.555503e-01	
35	3.162278e+03	-7.35524e+01,	2.760263e-01	
36	3.981072e+03	-7.35518e+01,	3.111990e-01	
37	5.011872e+03	-7.35511e+01,	3.629421e-01	
38	6.309573e+03	-7.35503e+01,	4.340103e-01	
39	7.943282e+03	-7.35490e+01,	5.281863e-01	
40	1.000000e+04	-7.35471e+01,	6.504808e-01	
41	1.258925e+04	-7.35441e+01,	8.073974e-01	
42	1.584893e+04	-7.35393e+01,	1.007274e+00	
43	1.995262e+04	-7.35318e+01,	1.260719e+00	
44	2.511886e+04	-7.35200e+01,	1.581156e+00	
45	3.162278e+04	-7.35012e+01,	1.985506e+00	
46	3.981072e+04	-7.34714e+01,	2.495012e+00	
47	5.011872e+04	-7.34243e+01,	3.136234e+00	
48	6.309573e+04	-7.33498e+01,	3.942175e+00	
49	7.943282e+04	-7.32320e+01,	4.953485e+00	
50	1.000000e+05	-7.30460e+01,	6.219518e+00	
51	1.258925e+05	-7.27531e+01,	7.798811e+00	
52	1.584893e+05	-7.22934e+01,	9.758036e+00	
53	1.995262e+05	-7.15760e+01,	1.216767e+01	
54	2.511886e+05	-7.04663e+01,	1.509124e+01	

Index   frequency       coll                            
--------------------------------------------------------------------------------
55	3.162278e+05	-6.87732e+01,	1.856344e+01	
56	3.981072e+05	-6.62425e+01,	2.255139e+01	
57	5.011872e+05	-6.25749e+01,	2.689729e+01	
58	6.309573e+05	-5.74896e+01,	3.125546e+01	
59	7.943282e+05	-5.08556e+01,	3.506801e+01	
60	1.000000e+06	-4.28568e+01,	3.765054e+01	
61	1.258925e+06	-3.40800e+01,	3.842279e+01	
62	1.584893e+06	-2.53928e+01,	3.718322e+01	
63	1.995262e+06	-1.76298e+01,	3.421781e+01	
64	2.511886e+06	-1.13041e+01,	3.014490e+01	
65	3.162278e+06	-6.53088e+00,	2.563385e+01	
66	3.981072e+06	-3.14196e+00,	2.119970e+01	
67	5.011872e+06	-8.52014e-01,	1.714443e+01	
68	6.309573e+06	6.232327e-01,	1.359498e+01	
69	7.943282e+06	1.513305e+00,	1.056938e+01	
70	1.000000e+07	1.983273e+00,	8.033781e+00	
71	1.258925e+07	2.145740e+00,	5.940389e+00	
72	1.584893e+07	2.080983e+00,	4.247155e+00	
73	1.995262e+07	1.856919e+00,	2.921345e+00	
74	2.511886e+07	1.541026e+00,	1.930860e+00	
75	3.162278e+07	1.198764e+00,	1.232535e+00	
76	3.981072e+07	8.822759e-01,	7.689342e-01	
77	5.011872e+07	6.211856e-01,	4.767979e-01	
78	6.309573e+07	4.231866e-01,	2.992364e-01	
79	7.943282e+07	2.818611e-01,	1.930137e-01	
80	1.000000e+08	1.851520e-01,	1.291563e-01	

                             .options savecurrents
                             AC Analysis  Sun May 23 17:01:21  2021
--------------------------------------------------------------------------------
Index   frequency       emit                            
--------------------------------------------------------------------------------
0	1.000000e+00	7.889060e-01,	3.618555e-03	
1	1.258925e+00	7.878624e-01,	-2.60557e-02	
2	1.584893e+00	7.843071e-01,	-5.67907e-02	
3	1.995262e+00	7.775955e-01,	-8.97720e-02	
4	2.511886e+00	7.665765e-01,	-1.25992e-01	
5	3.162278e+00	7.495434e-01,	-1.66051e-01	
6	3.981072e+00	7.242524e-01,	-2.09843e-01	
7	5.011872e+00	6.881162e-01,	-2.56138e-01	
8	6.309573e+00	6.387029e-01,	-3.02152e-01	
9	7.943282e+00	5.746554e-01,	-3.43322e-01	
10	1.000000e+01	4.969778e-01,	-3.73732e-01	
11	1.258925e+01	4.101063e-01,	-3.87665e-01	
12	1.584893e+01	3.216002e-01,	-3.82030e-01	
13	1.995262e+01	2.398474e-01,	-3.58127e-01	
14	2.511886e+01	1.710484e-01,	-3.21146e-01	
15	3.162278e+01	1.176173e-01,	-2.77772e-01	
16	3.981072e+01	7.867787e-02,	-2.33787e-01	
17	5.011872e+01	5.160411e-02,	-1.92970e-01	
18	6.309573e+01	3.339303e-02,	-1.57166e-01	
19	7.943282e+01	2.141523e-02,	-1.26872e-01	
20	1.000000e+02	1.365324e-02,	-1.01823e-01	
21	1.258925e+02	8.671548e-03,	-8.14140e-02	
22	1.584893e+02	5.494057e-03,	-6.49395e-02	
23	1.995262e+02	3.475371e-03,	-5.17196e-02	
24	2.511886e+02	2.196114e-03,	-4.11509e-02	
25	3.162278e+02	1.386736e-03,	-3.27218e-02	
26	3.981072e+02	8.751653e-04,	-2.60092e-02	
27	5.011872e+02	5.520317e-04,	-2.06685e-02	
28	6.309573e+02	3.480070e-04,	-1.64219e-02	
29	7.943282e+02	2.192198e-04,	-1.30466e-02	
30	1.000000e+03	1.379382e-04,	-1.03644e-02	
31	1.258925e+03	8.664403e-05,	-8.23326e-03	
32	1.584893e+03	5.427605e-05,	-6.54019e-03	
33	1.995262e+03	3.385182e-05,	-5.19519e-03	
34	2.511886e+03	2.096444e-05,	-4.12676e-03	
35	3.162278e+03	1.283283e-05,	-3.27803e-03	
36	3.981072e+03	7.702045e-06,	-2.60385e-03	
37	5.011872e+03	4.464704e-06,	-2.06832e-03	
38	6.309573e+03	2.422071e-06,	-1.64293e-03	
39	7.943282e+03	1.133258e-06,	-1.30502e-03	
40	1.000000e+04	3.200805e-07,	-1.03662e-03	
41	1.258925e+04	-1.92983e-07,	-8.23411e-04	
42	1.584893e+04	-5.16677e-07,	-6.54055e-04	
43	1.995262e+04	-7.20870e-07,	-5.19530e-04	
44	2.511886e+04	-8.49638e-07,	-4.12672e-04	
45	3.162278e+04	-9.30775e-07,	-3.27790e-04	
46	3.981072e+04	-9.81794e-07,	-2.60363e-04	
47	5.011872e+04	-1.01371e-06,	-2.06802e-04	
48	6.309573e+04	-1.03341e-06,	-1.64255e-04	
49	7.943282e+04	-1.04515e-06,	-1.30454e-04	
50	1.000000e+05	-1.05146e-06,	-1.03600e-04	
51	1.258925e+05	-1.05373e-06,	-8.22641e-05	
52	1.584893e+05	-1.05248e-06,	-6.53091e-05	
53	1.995262e+05	-1.04753e-06,	-5.18327e-05	
54	2.511886e+05	-1.03798e-06,	-4.11179e-05	

Index   frequency       emit                            
--------------------------------------------------------------------------------
55	3.162278e+05	-1.02227e-06,	-3.25952e-05	
56	3.981072e+05	-9.98077e-07,	-2.58130e-05	
57	5.011872e+05	-9.62591e-07,	-2.04136e-05	
58	6.309573e+05	-9.13133e-07,	-1.61152e-05	
59	7.943282e+05	-8.48448e-07,	-1.26965e-05	
60	1.000000e+06	-7.70325e-07,	-9.98419e-06	
61	1.258925e+06	-6.84451e-07,	-7.84074e-06	
62	1.584893e+06	-5.99212e-07,	-6.15441e-06	
63	1.995262e+06	-5.22628e-07,	-4.83200e-06	
64	2.511886e+06	-4.59509e-07,	-3.79556e-06	
65	3.162278e+06	-4.10680e-07,	-2.98136e-06	
66	3.981072e+06	-3.74052e-07,	-2.33884e-06	
67	5.011872e+06	-3.46179e-07,	-1.82889e-06	
68	6.309573e+06	-3.23355e-07,	-1.42164e-06	
69	7.943282e+06	-3.02127e-07,	-1.09449e-06	
70	1.000000e+07	-2.79500e-07,	-8.30669e-07	
71	1.258925e+07	-2.53176e-07,	-6.18125e-07	
72	1.584893e+07	-2.22016e-07,	-4.48638e-07	
73	1.995262e+07	-1.86577e-07,	-3.16639e-07	
74	2.511886e+07	-1.49237e-07,	-2.17650e-07	
75	3.162278e+07	-1.13424e-07,	-1.46844e-07	
76	3.981072e+07	-8.22137e-08,	-9.85268e-08	
77	5.011872e+07	-5.72621e-08,	-6.67273e-08	
78	6.309573e+07	-3.86700e-08,	-4.61653e-08	
79	7.943282e+07	-2.55350e-08,	-3.28294e-08	
80	1.000000e+08	-1.66017e-08,	-2.40012e-08	

                             .options savecurrents
                             AC Analysis  Sun May 23 17:01:21  2021
--------------------------------------------------------------------------------
Index   frequency       emit2                           
--------------------------------------------------------------------------------
0	1.000000e+00	-3.83850e+01,	-1.32566e+01	
1	1.258925e+00	-3.96930e+01,	-1.50104e+01	
2	1.584893e+00	-4.15987e+01,	-1.72583e+01	
3	1.995262e+00	-4.43808e+01,	-1.98654e+01	
4	2.511886e+00	-4.83445e+01,	-2.25336e+01	
5	3.162278e+00	-5.37276e+01,	-2.47249e+01	
6	3.981072e+00	-6.05114e+01,	-2.56396e+01	
7	5.011872e+00	-6.81732e+01,	-2.43628e+01	
8	6.309573e+00	-7.55540e+01,	-2.02551e+01	
9	7.943282e+00	-8.10921e+01,	-1.34546e+01	
10	1.000000e+01	-8.34723e+01,	-5.09787e+00	
11	1.258925e+01	-8.23100e+01,	3.054557e+00	
12	1.584893e+01	-7.83358e+01,	9.415089e+00	
13	1.995262e+01	-7.29381e+01,	1.321603e+01	
14	2.511886e+01	-6.74594e+01,	1.459582e+01	
15	3.162278e+01	-6.27446e+01,	1.422456e+01	
16	3.981072e+01	-5.90981e+01,	1.285943e+01	
17	5.011872e+01	-5.64711e+01,	1.108976e+01	
18	6.309573e+01	-5.46653e+01,	9.281413e+00	
19	7.943282e+01	-5.34616e+01,	7.621513e+00	
20	1.000000e+02	-5.26750e+01,	6.183579e+00	
21	1.258925e+02	-5.21675e+01,	4.979213e+00	
22	1.584893e+02	-5.18428e+01,	3.990859e+00	
23	1.995262e+02	-5.16360e+01,	3.190021e+00	
24	2.511886e+02	-5.15049e+01,	2.546405e+00	
25	3.162278e+02	-5.14218e+01,	2.032012e+00	
26	3.981072e+02	-5.13693e+01,	1.622620e+00	
27	5.011872e+02	-5.13361e+01,	1.298025e+00	
28	6.309573e+02	-5.13151e+01,	1.041744e+00	
29	7.943282e+02	-5.13019e+01,	8.405338e-01	
30	1.000000e+03	-5.12935e+01,	6.838814e-01	
31	1.258925e+03	-5.12882e+01,	5.635459e-01	
32	1.584893e+03	-5.12849e+01,	4.731700e-01	
33	1.995262e+03	-5.12827e+01,	4.079665e-01	
34	2.511886e+03	-5.12813e+01,	3.644756e-01	
35	3.162278e+03	-5.12803e+01,	3.403878e-01	
36	3.981072e+03	-5.12796e+01,	3.344233e-01	
37	5.011872e+03	-5.12789e+01,	3.462656e-01	
38	6.309573e+03	-5.12782e+01,	3.765453e-01	
39	7.943282e+03	-5.12772e+01,	4.268739e-01	
40	1.000000e+04	-5.12759e+01,	4.999285e-01	
41	1.258925e+04	-5.12737e+01,	5.995932e-01	
42	1.584893e+04	-5.12704e+01,	7.311629e-01	
43	1.995262e+04	-5.12652e+01,	9.016188e-01	
44	2.511886e+04	-5.12569e+01,	1.119988e+00	
45	3.162278e+04	-5.12438e+01,	1.397798e+00	
46	3.981072e+04	-5.12231e+01,	1.749643e+00	
47	5.011872e+04	-5.11903e+01,	2.193860e+00	
48	6.309573e+04	-5.11384e+01,	2.753309e+00	
49	7.943282e+04	-5.10563e+01,	3.456201e+00	
50	1.000000e+05	-5.09268e+01,	4.336832e+00	
51	1.258925e+05	-5.07227e+01,	5.435911e+00	
52	1.584893e+05	-5.04025e+01,	6.799829e+00	
53	1.995262e+05	-4.99029e+01,	8.477631e+00	
54	2.511886e+05	-4.91300e+01,	1.051355e+01	

Index   frequency       emit2                           
--------------------------------------------------------------------------------
55	3.162278e+05	-4.79507e+01,	1.293171e+01	
56	3.981072e+05	-4.61881e+01,	1.570922e+01	
57	5.011872e+05	-4.36335e+01,	1.873614e+01	
58	6.309573e+05	-4.00916e+01,	2.177172e+01	
59	7.943282e+05	-3.54710e+01,	2.442738e+01	
60	1.000000e+06	-2.98997e+01,	2.622645e+01	
61	1.258925e+06	-2.37866e+01,	2.676479e+01	
62	1.584893e+06	-1.77358e+01,	2.590203e+01	
63	1.995262e+06	-1.23287e+01,	2.383741e+01	
64	2.511886e+06	-7.92261e+00,	2.100164e+01	
65	3.162278e+06	-4.59767e+00,	1.786097e+01	
66	3.981072e+06	-2.23676e+00,	1.477417e+01	
67	5.011872e+06	-6.41005e-01,	1.195162e+01	
68	6.309573e+06	3.877179e-01,	9.481734e+00	
69	7.943282e+06	1.009450e+00,	7.377043e+00	
70	1.000000e+07	1.339361e+00,	5.613841e+00	
71	1.258925e+07	1.456051e+00,	4.158588e+00	
72	1.584893e+07	1.415485e+00,	2.981607e+00	
73	1.995262e+07	1.264792e+00,	2.059650e+00	
74	2.511886e+07	1.050539e+00,	1.370021e+00	
75	3.162278e+07	8.177377e-01,	8.825918e-01	
76	3.981072e+07	6.021963e-01,	5.576063e-01	
77	5.011872e+07	4.242693e-01,	3.514303e-01	
78	6.309573e+07	2.892905e-01,	2.248656e-01	
79	7.943282e+07	1.929274e-01,	1.481070e-01	
80	1.000000e+08	1.269783e-01,	1.011458e-01	

                             .options savecurrents
                             AC Analysis  Sun May 23 17:01:21  2021
--------------------------------------------------------------------------------
Index   frequency       in                              
--------------------------------------------------------------------------------
0	1.000000e+00	1.000000e+00,	0.000000e+00	
1	1.258925e+00	1.000000e+00,	0.000000e+00	
2	1.584893e+00	1.000000e+00,	0.000000e+00	
3	1.995262e+00	1.000000e+00,	0.000000e+00	
4	2.511886e+00	1.000000e+00,	0.000000e+00	
5	3.162278e+00	1.000000e+00,	0.000000e+00	
6	3.981072e+00	1.000000e+00,	0.000000e+00	
7	5.011872e+00	1.000000e+00,	0.000000e+00	
8	6.309573e+00	1.000000e+00,	0.000000e+00	
9	7.943282e+00	1.000000e+00,	0.000000e+00	
10	1.000000e+01	1.000000e+00,	0.000000e+00	
11	1.258925e+01	1.000000e+00,	0.000000e+00	
12	1.584893e+01	1.000000e+00,	0.000000e+00	
13	1.995262e+01	1.000000e+00,	0.000000e+00	
14	2.511886e+01	1.000000e+00,	0.000000e+00	
15	3.162278e+01	1.000000e+00,	0.000000e+00	
16	3.981072e+01	1.000000e+00,	0.000000e+00	
17	5.011872e+01	1.000000e+00,	0.000000e+00	
18	6.309573e+01	1.000000e+00,	0.000000e+00	
19	7.943282e+01	1.000000e+00,	0.000000e+00	
20	1.000000e+02	1.000000e+00,	0.000000e+00	
21	1.258925e+02	1.000000e+00,	0.000000e+00	
22	1.584893e+02	1.000000e+00,	0.000000e+00	
23	1.995262e+02	1.000000e+00,	0.000000e+00	
24	2.511886e+02	1.000000e+00,	0.000000e+00	
25	3.162278e+02	1.000000e+00,	0.000000e+00	
26	3.981072e+02	1.000000e+00,	0.000000e+00	
27	5.011872e+02	1.000000e+00,	0.000000e+00	
28	6.309573e+02	1.000000e+00,	0.000000e+00	
29	7.943282e+02	1.000000e+00,	0.000000e+00	
30	1.000000e+03	1.000000e+00,	0.000000e+00	
31	1.258925e+03	1.000000e+00,	0.000000e+00	
32	1.584893e+03	1.000000e+00,	0.000000e+00	
33	1.995262e+03	1.000000e+00,	0.000000e+00	
34	2.511886e+03	1.000000e+00,	0.000000e+00	
35	3.162278e+03	1.000000e+00,	0.000000e+00	
36	3.981072e+03	1.000000e+00,	0.000000e+00	
37	5.011872e+03	1.000000e+00,	0.000000e+00	
38	6.309573e+03	1.000000e+00,	0.000000e+00	
39	7.943282e+03	1.000000e+00,	0.000000e+00	
40	1.000000e+04	1.000000e+00,	0.000000e+00	
41	1.258925e+04	1.000000e+00,	0.000000e+00	
42	1.584893e+04	1.000000e+00,	0.000000e+00	
43	1.995262e+04	1.000000e+00,	0.000000e+00	
44	2.511886e+04	1.000000e+00,	0.000000e+00	
45	3.162278e+04	1.000000e+00,	0.000000e+00	
46	3.981072e+04	1.000000e+00,	0.000000e+00	
47	5.011872e+04	1.000000e+00,	0.000000e+00	
48	6.309573e+04	1.000000e+00,	0.000000e+00	
49	7.943282e+04	1.000000e+00,	0.000000e+00	
50	1.000000e+05	1.000000e+00,	0.000000e+00	
51	1.258925e+05	1.000000e+00,	0.000000e+00	
52	1.584893e+05	1.000000e+00,	0.000000e+00	
53	1.995262e+05	1.000000e+00,	0.000000e+00	
54	2.511886e+05	1.000000e+00,	0.000000e+00	

Index   frequency       in                              
--------------------------------------------------------------------------------
55	3.162278e+05	1.000000e+00,	0.000000e+00	
56	3.981072e+05	1.000000e+00,	0.000000e+00	
57	5.011872e+05	1.000000e+00,	0.000000e+00	
58	6.309573e+05	1.000000e+00,	0.000000e+00	
59	7.943282e+05	1.000000e+00,	0.000000e+00	
60	1.000000e+06	1.000000e+00,	0.000000e+00	
61	1.258925e+06	1.000000e+00,	0.000000e+00	
62	1.584893e+06	1.000000e+00,	0.000000e+00	
63	1.995262e+06	1.000000e+00,	0.000000e+00	
64	2.511886e+06	1.000000e+00,	0.000000e+00	
65	3.162278e+06	1.000000e+00,	0.000000e+00	
66	3.981072e+06	1.000000e+00,	0.000000e+00	
67	5.011872e+06	1.000000e+00,	0.000000e+00	
68	6.309573e+06	1.000000e+00,	0.000000e+00	
69	7.943282e+06	1.000000e+00,	0.000000e+00	
70	1.000000e+07	1.000000e+00,	0.000000e+00	
71	1.258925e+07	1.000000e+00,	0.000000e+00	
72	1.584893e+07	1.000000e+00,	0.000000e+00	
73	1.995262e+07	1.000000e+00,	0.000000e+00	
74	2.511886e+07	1.000000e+00,	0.000000e+00	
75	3.162278e+07	1.000000e+00,	0.000000e+00	
76	3.981072e+07	1.000000e+00,	0.000000e+00	
77	5.011872e+07	1.000000e+00,	0.000000e+00	
78	6.309573e+07	1.000000e+00,	0.000000e+00	
79	7.943282e+07	1.000000e+00,	0.000000e+00	
80	1.000000e+08	1.000000e+00,	0.000000e+00	

                             .options savecurrents
                             AC Analysis  Sun May 23 17:01:21  2021
--------------------------------------------------------------------------------
Index   frequency       in2                             
--------------------------------------------------------------------------------
0	1.000000e+00	9.605345e-01,	-5.08156e-03	
1	1.258925e+00	9.603445e-01,	-4.85343e-03	
2	1.584893e+00	9.601432e-01,	-4.86642e-03	
3	1.995262e+00	9.598911e-01,	-5.11260e-03	
4	2.511886e+00	9.595424e-01,	-5.58567e-03	
5	3.162278e+00	9.590408e-01,	-6.27461e-03	
6	3.981072e+00	9.583185e-01,	-7.15396e-03	
7	5.011872e+00	9.573003e-01,	-8.17139e-03	
8	6.309573e+00	9.559169e-01,	-9.23498e-03	
9	7.943282e+00	9.541300e-01,	-1.02067e-02	
10	1.000000e+01	9.519671e-01,	-1.09135e-02	
11	1.258925e+01	9.495513e-01,	-1.11903e-02	
12	1.584893e+01	9.470918e-01,	-1.09460e-02	
13	1.995262e+01	9.448211e-01,	-1.02127e-02	
14	2.511886e+01	9.429108e-01,	-9.13100e-03	
15	3.162278e+01	9.414274e-01,	-7.88360e-03	
16	3.981072e+01	9.403465e-01,	-6.62869e-03	
17	5.011872e+01	9.395950e-01,	-5.46923e-03	
18	6.309573e+01	9.390895e-01,	-4.45502e-03	
19	7.943282e+01	9.387571e-01,	-3.59869e-03	
20	1.000000e+02	9.385416e-01,	-2.89211e-03	
21	1.258925e+02	9.384034e-01,	-2.31782e-03	
22	1.584893e+02	9.383152e-01,	-1.85584e-03	
23	1.995262e+02	9.382592e-01,	-1.48703e-03	
24	2.511886e+02	9.382237e-01,	-1.19456e-03	
25	3.162278e+02	9.382012e-01,	-9.64272e-04	
26	3.981072e+02	9.381870e-01,	-7.84605e-04	
27	5.011872e+02	9.381780e-01,	-6.46359e-04	
28	6.309573e+02	9.381723e-01,	-5.42350e-04	
29	7.943282e+02	9.381687e-01,	-4.67133e-04	
30	1.000000e+03	9.381665e-01,	-4.16746e-04	
31	1.258925e+03	9.381650e-01,	-3.88529e-04	
32	1.584893e+03	9.381640e-01,	-3.80991e-04	
33	1.995262e+03	9.381634e-01,	-3.93736e-04	
34	2.511886e+03	9.381628e-01,	-4.27446e-04	
35	3.162278e+03	9.381623e-01,	-4.83918e-04	
36	3.981072e+03	9.381618e-01,	-5.66158e-04	
37	5.011872e+03	9.381610e-01,	-6.78546e-04	
38	6.309573e+03	9.381598e-01,	-8.27066e-04	
39	7.943282e+03	9.381581e-01,	-1.01962e-03	
40	1.000000e+04	9.381553e-01,	-1.26647e-03	
41	1.258925e+04	9.381510e-01,	-1.58073e-03	
42	1.584893e+04	9.381442e-01,	-1.97911e-03	
43	1.995262e+04	9.381333e-01,	-2.48279e-03	
44	2.511886e+04	9.381162e-01,	-3.11849e-03	
45	3.162278e+04	9.380890e-01,	-3.91983e-03	
46	3.981072e+04	9.380459e-01,	-4.92911e-03	
47	5.011872e+04	9.379777e-01,	-6.19924e-03	
48	6.309573e+04	9.378698e-01,	-7.79624e-03	
49	7.943282e+04	9.376992e-01,	-9.80193e-03	
50	1.000000e+05	9.374299e-01,	-1.23167e-02	
51	1.258925e+05	9.370057e-01,	-1.54620e-02	
52	1.584893e+05	9.363398e-01,	-1.93803e-02	
53	1.995262e+05	9.353003e-01,	-2.42325e-02	
54	2.511886e+05	9.336916e-01,	-3.01847e-02	

Index   frequency       in2                             
--------------------------------------------------------------------------------
55	3.162278e+05	9.312348e-01,	-3.73822e-02	
56	3.981072e+05	9.275580e-01,	-4.58989e-02	
57	5.011872e+05	9.222174e-01,	-5.56624e-02	
58	6.309573e+05	9.147851e-01,	-6.63722e-02	
59	7.943282e+05	9.050282e-01,	-7.74747e-02	
60	1.000000e+06	8.931330e-01,	-8.82952e-02	
61	1.258925e+06	8.798145e-01,	-9.83780e-02	
62	1.584893e+06	8.661182e-01,	-1.07888e-01	
63	1.995262e+06	8.529387e-01,	-1.17776e-01	
64	2.511886e+06	8.405533e-01,	-1.29560e-01	
65	3.162278e+06	8.284320e-01,	-1.44914e-01	
66	3.981072e+06	8.152882e-01,	-1.65314e-01	
67	5.011872e+06	7.991756e-01,	-1.91825e-01	
68	6.309573e+06	7.775257e-01,	-2.24891e-01	
69	7.943282e+06	7.471935e-01,	-2.63971e-01	
70	1.000000e+07	7.047350e-01,	-3.06986e-01	
71	1.258925e+07	6.472141e-01,	-3.49738e-01	
72	1.584893e+07	5.736870e-01,	-3.85862e-01	
73	1.995262e+07	4.868819e-01,	-4.08064e-01	
74	2.511886e+07	3.937338e-01,	-4.10800e-01	
75	3.162278e+07	3.035621e-01,	-3.92985e-01	
76	3.981072e+07	2.245952e-01,	-3.58554e-01	
77	5.011872e+07	1.612930e-01,	-3.14358e-01	
78	6.309573e+07	1.140516e-01,	-2.67221e-01	
79	7.943282e+07	8.064575e-02,	-2.22103e-01	
80	1.000000e+08	5.791370e-02,	-1.81745e-01	

                             .options savecurrents
                             AC Analysis  Sun May 23 17:01:21  2021
--------------------------------------------------------------------------------
Index   frequency       out                             
--------------------------------------------------------------------------------
0	1.000000e+00	3.917184e-01,	-1.26688e+00	
1	1.258925e+00	5.493045e-01,	-1.65518e+00	
2	1.584893e+00	7.800144e-01,	-2.19438e+00	
3	1.995262e+00	1.101699e+00,	-2.96488e+00	
4	2.511886e+00	1.513459e+00,	-4.09165e+00	
5	3.162278e+00	1.960041e+00,	-5.75337e+00	
6	3.981072e+00	2.272705e+00,	-8.16606e+00	
7	5.011872e+00	2.104953e+00,	-1.15076e+01	
8	6.309573e+00	9.254920e-01,	-1.57655e+01	
9	7.943282e+00	-1.84545e+00,	-2.05657e+01	
10	1.000000e+01	-6.54561e+00,	-2.51328e+01	
11	1.258925e+01	-1.29843e+01,	-2.85140e+01	
12	1.584893e+01	-2.04069e+01,	-2.99956e+01	
13	1.995262e+01	-2.77973e+01,	-2.94261e+01	
14	2.511886e+01	-3.43062e+01,	-2.72074e+01	
15	3.162278e+01	-3.95035e+01,	-2.40115e+01	
16	3.981072e+01	-4.33563e+01,	-2.04747e+01	
17	5.011872e+01	-4.60635e+01,	-1.70418e+01	
18	6.309573e+01	-4.78964e+01,	-1.39534e+01	
19	7.943282e+01	-4.91069e+01,	-1.13010e+01	
20	1.000000e+02	-4.98934e+01,	-9.08785e+00	
21	1.258925e+02	-5.03989e+01,	-7.27423e+00	
22	1.584893e+02	-5.07217e+01,	-5.80474e+00	
23	1.995262e+02	-5.09270e+01,	-4.62238e+00	
24	2.511886e+02	-5.10570e+01,	-3.67506e+00	
25	3.162278e+02	-5.11394e+01,	-2.91784e+00	
26	3.981072e+02	-5.11914e+01,	-2.31319e+00	
27	5.011872e+02	-5.12243e+01,	-1.83031e+00	
28	6.309573e+02	-5.12451e+01,	-1.44419e+00	
29	7.943282e+02	-5.12581e+01,	-1.13461e+00	
30	1.000000e+03	-5.12664e+01,	-8.85288e-01	
31	1.258925e+03	-5.12716e+01,	-6.83016e-01	
32	1.584893e+03	-5.12749e+01,	-5.17072e-01	
33	1.995262e+03	-5.12769e+01,	-3.78642e-01	
34	2.511886e+03	-5.12781e+01,	-2.60365e-01	
35	3.162278e+03	-5.12788e+01,	-1.55947e-01	
36	3.981072e+03	-5.12791e+01,	-5.98320e-02	
37	5.011872e+03	-5.12791e+01,	3.309747e-02	
38	6.309573e+03	-5.12788e+01,	1.277886e-01	
39	7.943282e+03	-5.12781e+01,	2.292821e-01	
40	1.000000e+04	-5.12769e+01,	3.429794e-01	
41	1.258925e+04	-5.12749e+01,	4.749290e-01	
42	1.584893e+04	-5.12716e+01,	6.321449e-01	
43	1.995262e+04	-5.12664e+01,	8.229740e-01	
44	2.511886e+04	-5.12582e+01,	1.057528e+00	
45	3.162278e+04	-5.12451e+01,	1.348197e+00	
46	3.981072e+04	-5.12244e+01,	1.710260e+00	
47	5.011872e+04	-5.11916e+01,	2.162597e+00	
48	6.309573e+04	-5.11397e+01,	2.728501e+00	
49	7.943282e+04	-5.10576e+01,	3.436527e+00	
50	1.000000e+05	-5.09281e+01,	4.321244e+00	
51	1.258925e+05	-5.07241e+01,	5.423579e+00	
52	1.584893e+05	-5.04039e+01,	6.790094e+00	
53	1.995262e+05	-4.99042e+01,	8.469976e+00	
54	2.511886e+05	-4.91313e+01,	1.050756e+01	

Index   frequency       out                             
--------------------------------------------------------------------------------
55	3.162278e+05	-4.79520e+01,	1.292707e+01	
56	3.981072e+05	-4.61893e+01,	1.570567e+01	
57	5.011872e+05	-4.36347e+01,	1.873348e+01	
58	6.309573e+05	-4.00927e+01,	2.176977e+01	
59	7.943282e+05	-3.54719e+01,	2.442601e+01	
60	1.000000e+06	-2.99005e+01,	2.622554e+01	
61	1.258925e+06	-2.37872e+01,	2.676421e+01	
62	1.584893e+06	-1.77363e+01,	2.590169e+01	
63	1.995262e+06	-1.23290e+01,	2.383722e+01	
64	2.511886e+06	-7.92287e+00,	2.100155e+01	
65	3.162278e+06	-4.59785e+00,	1.786092e+01	
66	3.981072e+06	-2.23687e+00,	1.477415e+01	
67	5.011872e+06	-6.41078e-01,	1.195161e+01	
68	6.309573e+06	3.876719e-01,	9.481735e+00	
69	7.943282e+06	1.009422e+00,	7.377047e+00	
70	1.000000e+07	1.339344e+00,	5.613845e+00	
71	1.258925e+07	1.456041e+00,	4.158592e+00	
72	1.584893e+07	1.415479e+00,	2.981610e+00	
73	1.995262e+07	1.264789e+00,	2.059652e+00	
74	2.511886e+07	1.050537e+00,	1.370022e+00	
75	3.162278e+07	8.177369e-01,	8.825926e-01	
76	3.981072e+07	6.021959e-01,	5.576068e-01	
77	5.011872e+07	4.242691e-01,	3.514306e-01	
78	6.309573e+07	2.892904e-01,	2.248657e-01	
79	7.943282e+07	1.929274e-01,	1.481071e-01	
80	1.000000e+08	1.269783e-01,	1.011458e-01	

                             .options savecurrents
                             AC Analysis  Sun May 23 17:01:21  2021
--------------------------------------------------------------------------------
Index   frequency       vcc                             
--------------------------------------------------------------------------------
0	1.000000e+00	0.000000e+00,	0.000000e+00	
1	1.258925e+00	0.000000e+00,	0.000000e+00	
2	1.584893e+00	0.000000e+00,	0.000000e+00	
3	1.995262e+00	0.000000e+00,	0.000000e+00	
4	2.511886e+00	0.000000e+00,	0.000000e+00	
5	3.162278e+00	0.000000e+00,	0.000000e+00	
6	3.981072e+00	0.000000e+00,	0.000000e+00	
7	5.011872e+00	0.000000e+00,	0.000000e+00	
8	6.309573e+00	0.000000e+00,	0.000000e+00	
9	7.943282e+00	0.000000e+00,	0.000000e+00	
10	1.000000e+01	0.000000e+00,	0.000000e+00	
11	1.258925e+01	0.000000e+00,	0.000000e+00	
12	1.584893e+01	0.000000e+00,	0.000000e+00	
13	1.995262e+01	0.000000e+00,	0.000000e+00	
14	2.511886e+01	0.000000e+00,	0.000000e+00	
15	3.162278e+01	0.000000e+00,	0.000000e+00	
16	3.981072e+01	0.000000e+00,	0.000000e+00	
17	5.011872e+01	0.000000e+00,	0.000000e+00	
18	6.309573e+01	0.000000e+00,	0.000000e+00	
19	7.943282e+01	0.000000e+00,	0.000000e+00	
20	1.000000e+02	0.000000e+00,	0.000000e+00	
21	1.258925e+02	0.000000e+00,	0.000000e+00	
22	1.584893e+02	0.000000e+00,	0.000000e+00	
23	1.995262e+02	0.000000e+00,	0.000000e+00	
24	2.511886e+02	0.000000e+00,	0.000000e+00	
25	3.162278e+02	0.000000e+00,	0.000000e+00	
26	3.981072e+02	0.000000e+00,	0.000000e+00	
27	5.011872e+02	0.000000e+00,	0.000000e+00	
28	6.309573e+02	0.000000e+00,	0.000000e+00	
29	7.943282e+02	0.000000e+00,	0.000000e+00	
30	1.000000e+03	0.000000e+00,	0.000000e+00	
31	1.258925e+03	0.000000e+00,	0.000000e+00	
32	1.584893e+03	0.000000e+00,	0.000000e+00	
33	1.995262e+03	0.000000e+00,	0.000000e+00	
34	2.511886e+03	0.000000e+00,	0.000000e+00	
35	3.162278e+03	0.000000e+00,	0.000000e+00	
36	3.981072e+03	0.000000e+00,	0.000000e+00	
37	5.011872e+03	0.000000e+00,	0.000000e+00	
38	6.309573e+03	0.000000e+00,	0.000000e+00	
39	7.943282e+03	0.000000e+00,	0.000000e+00	
40	1.000000e+04	0.000000e+00,	0.000000e+00	
41	1.258925e+04	0.000000e+00,	0.000000e+00	
42	1.584893e+04	0.000000e+00,	0.000000e+00	
43	1.995262e+04	0.000000e+00,	0.000000e+00	
44	2.511886e+04	0.000000e+00,	0.000000e+00	
45	3.162278e+04	0.000000e+00,	0.000000e+00	
46	3.981072e+04	0.000000e+00,	0.000000e+00	
47	5.011872e+04	0.000000e+00,	0.000000e+00	
48	6.309573e+04	0.000000e+00,	0.000000e+00	
49	7.943282e+04	0.000000e+00,	0.000000e+00	
50	1.000000e+05	0.000000e+00,	0.000000e+00	
51	1.258925e+05	0.000000e+00,	0.000000e+00	
52	1.584893e+05	0.000000e+00,	0.000000e+00	
53	1.995262e+05	0.000000e+00,	0.000000e+00	
54	2.511886e+05	0.000000e+00,	0.000000e+00	

Index   frequency       vcc                             
--------------------------------------------------------------------------------
55	3.162278e+05	0.000000e+00,	0.000000e+00	
56	3.981072e+05	0.000000e+00,	0.000000e+00	
57	5.011872e+05	0.000000e+00,	0.000000e+00	
58	6.309573e+05	0.000000e+00,	0.000000e+00	
59	7.943282e+05	0.000000e+00,	0.000000e+00	
60	1.000000e+06	0.000000e+00,	0.000000e+00	
61	1.258925e+06	0.000000e+00,	0.000000e+00	
62	1.584893e+06	0.000000e+00,	0.000000e+00	
63	1.995262e+06	0.000000e+00,	0.000000e+00	
64	2.511886e+06	0.000000e+00,	0.000000e+00	
65	3.162278e+06	0.000000e+00,	0.000000e+00	
66	3.981072e+06	0.000000e+00,	0.000000e+00	
67	5.011872e+06	0.000000e+00,	0.000000e+00	
68	6.309573e+06	0.000000e+00,	0.000000e+00	
69	7.943282e+06	0.000000e+00,	0.000000e+00	
70	1.000000e+07	0.000000e+00,	0.000000e+00	
71	1.258925e+07	0.000000e+00,	0.000000e+00	
72	1.584893e+07	0.000000e+00,	0.000000e+00	
73	1.995262e+07	0.000000e+00,	0.000000e+00	
74	2.511886e+07	0.000000e+00,	0.000000e+00	
75	3.162278e+07	0.000000e+00,	0.000000e+00	
76	3.981072e+07	0.000000e+00,	0.000000e+00	
77	5.011872e+07	0.000000e+00,	0.000000e+00	
78	6.309573e+07	0.000000e+00,	0.000000e+00	
79	7.943282e+07	0.000000e+00,	0.000000e+00	
80	1.000000e+08	0.000000e+00,	0.000000e+00	

                             .options savecurrents
                             AC Analysis  Sun May 23 17:01:21  2021
--------------------------------------------------------------------------------
Index   frequency       vcc#branch                      
--------------------------------------------------------------------------------
0	1.000000e+00	-7.16959e-02,	-2.48871e-02	
1	1.258925e+00	-7.41273e-02,	-2.81990e-02	
2	1.584893e+00	-7.76699e-02,	-3.24477e-02	
3	1.995262e+00	-8.28430e-02,	-3.73872e-02	
4	2.511886e+00	-9.02171e-02,	-4.24716e-02	
5	3.162278e+00	-1.00241e-01,	-4.67102e-02	
6	3.981072e+00	-1.12896e-01,	-4.86266e-02	
7	5.011872e+00	-1.27232e-01,	-4.65261e-02	
8	6.309573e+00	-1.41130e-01,	-3.92122e-02	
9	7.943282e+00	-1.51720e-01,	-2.69108e-02	
10	1.000000e+01	-1.56571e-01,	-1.16805e-02	
11	1.258925e+01	-1.54950e-01,	3.269358e-03	
12	1.584893e+01	-1.48156e-01,	1.503227e-02	
13	1.995262e+01	-1.38699e-01,	2.218612e-02	
14	2.511886e+01	-1.29015e-01,	2.495526e-02	
15	3.162278e+01	-1.20646e-01,	2.453481e-02	
16	3.981072e+01	-1.14160e-01,	2.228567e-02	
17	5.011872e+01	-1.09480e-01,	1.927146e-02	
18	6.309573e+01	-1.06262e-01,	1.615546e-02	
19	7.943282e+01	-1.04115e-01,	1.327963e-02	
20	1.000000e+02	-1.02712e-01,	1.078112e-02	
21	1.258925e+02	-1.01807e-01,	8.685033e-03	
22	1.584893e+02	-1.01227e-01,	6.963279e-03	
23	1.995262e+02	-1.00859e-01,	5.567472e-03	
24	2.511886e+02	-1.00625e-01,	4.445445e-03	
25	3.162278e+02	-1.00476e-01,	3.548701e-03	
26	3.981072e+02	-1.00383e-01,	2.835178e-03	
27	5.011872e+02	-1.00323e-01,	2.269743e-03	
28	6.309573e+02	-1.00286e-01,	1.823728e-03	
29	7.943282e+02	-1.00262e-01,	1.474103e-03	
30	1.000000e+03	-1.00247e-01,	1.202615e-03	
31	1.258925e+03	-1.00238e-01,	9.949867e-04	
32	1.584893e+03	-1.00232e-01,	8.402532e-04	
33	1.995262e+03	-1.00228e-01,	7.302200e-04	
34	2.511886e+03	-1.00226e-01,	6.590505e-04	
35	3.162278e+03	-1.00224e-01,	6.229659e-04	
36	3.981072e+03	-1.00222e-01,	6.200498e-04	
37	5.011872e+03	-1.00221e-01,	6.501492e-04	
38	6.309573e+03	-1.00220e-01,	7.148668e-04	
39	7.943282e+03	-1.00218e-01,	8.176467e-04	
40	1.000000e+04	-1.00215e-01,	9.639564e-04	
41	1.258925e+04	-1.00211e-01,	1.161575e-03	
42	1.584893e+04	-1.00205e-01,	1.421002e-03	
43	1.995262e+04	-1.00194e-01,	1.756003e-03	
44	2.511886e+04	-1.00178e-01,	2.184320e-03	
45	3.162278e+04	-1.00153e-01,	2.728564e-03	
46	3.981072e+04	-1.00112e-01,	3.417326e-03	
47	5.011872e+04	-1.00048e-01,	4.286503e-03	
48	6.309573e+04	-9.99465e-02,	5.380826e-03	
49	7.943282e+04	-9.97861e-02,	6.755477e-03	
50	1.000000e+05	-9.95328e-02,	8.477535e-03	
51	1.258925e+05	-9.91339e-02,	1.062661e-02	
52	1.584893e+05	-9.85079e-02,	1.329340e-02	
53	1.995262e+05	-9.75310e-02,	1.657382e-02	
54	2.511886e+05	-9.60199e-02,	2.055434e-02	

Index   frequency       vcc#branch                      
--------------------------------------------------------------------------------
55	3.162278e+05	-9.37142e-02,	2.528215e-02	
56	3.981072e+05	-9.02681e-02,	3.071248e-02	
57	5.011872e+05	-8.52736e-02,	3.663040e-02	
58	6.309573e+05	-7.83487e-02,	4.256518e-02	
59	7.943282e+05	-6.93148e-02,	4.775712e-02	
60	1.000000e+06	-5.84224e-02,	5.127424e-02	
61	1.258925e+06	-4.64706e-02,	5.232640e-02	
62	1.584893e+06	-3.46406e-02,	5.063915e-02	
63	1.995262e+06	-2.40691e-02,	4.660199e-02	
64	2.511886e+06	-1.54549e-02,	4.105698e-02	
65	3.162278e+06	-8.95444e-03,	3.491566e-02	
66	3.981072e+06	-4.33892e-03,	2.887947e-02	
67	5.011872e+06	-1.21958e-03,	2.335966e-02	
68	6.309573e+06	7.908573e-04,	1.852912e-02	
69	7.943282e+06	2.005176e-03,	1.441235e-02	
70	1.000000e+07	2.648405e-03,	1.096308e-02	
71	1.258925e+07	2.874098e-03,	8.115937e-03	
72	1.584893e+07	2.791638e-03,	5.813152e-03	
73	1.995262e+07	2.493291e-03,	4.009587e-03	
74	2.511886e+07	2.070398e-03,	2.661103e-03	
75	3.162278e+07	1.611367e-03,	1.708841e-03	
76	3.981072e+07	1.186562e-03,	1.074901e-03	
77	5.011872e+07	8.359712e-04,	6.736748e-04	
78	6.309573e+07	5.700393e-04,	4.282308e-04	
79	7.943282e+07	3.802010e-04,	2.800820e-04	
80	1.000000e+08	2.502848e-04,	1.899896e-04	

                             .options savecurrents
                             AC Analysis  Sun May 23 17:01:21  2021
--------------------------------------------------------------------------------
Index   frequency       vin#branch                      
--------------------------------------------------------------------------------
0	1.000000e+00	-3.94655e-04,	-5.08156e-05	
1	1.258925e+00	-3.96555e-04,	-4.85343e-05	
2	1.584893e+00	-3.98568e-04,	-4.86642e-05	
3	1.995262e+00	-4.01089e-04,	-5.11260e-05	
4	2.511886e+00	-4.04576e-04,	-5.58567e-05	
5	3.162278e+00	-4.09592e-04,	-6.27461e-05	
6	3.981072e+00	-4.16815e-04,	-7.15396e-05	
7	5.011872e+00	-4.26997e-04,	-8.17139e-05	
8	6.309573e+00	-4.40831e-04,	-9.23498e-05	
9	7.943282e+00	-4.58700e-04,	-1.02067e-04	
10	1.000000e+01	-4.80329e-04,	-1.09135e-04	
11	1.258925e+01	-5.04487e-04,	-1.11903e-04	
12	1.584893e+01	-5.29082e-04,	-1.09460e-04	
13	1.995262e+01	-5.51789e-04,	-1.02127e-04	
14	2.511886e+01	-5.70892e-04,	-9.13100e-05	
15	3.162278e+01	-5.85726e-04,	-7.88360e-05	
16	3.981072e+01	-5.96535e-04,	-6.62869e-05	
17	5.011872e+01	-6.04050e-04,	-5.46923e-05	
18	6.309573e+01	-6.09105e-04,	-4.45502e-05	
19	7.943282e+01	-6.12429e-04,	-3.59869e-05	
20	1.000000e+02	-6.14584e-04,	-2.89211e-05	
21	1.258925e+02	-6.15966e-04,	-2.31782e-05	
22	1.584893e+02	-6.16848e-04,	-1.85584e-05	
23	1.995262e+02	-6.17408e-04,	-1.48703e-05	
24	2.511886e+02	-6.17763e-04,	-1.19456e-05	
25	3.162278e+02	-6.17988e-04,	-9.64272e-06	
26	3.981072e+02	-6.18130e-04,	-7.84605e-06	
27	5.011872e+02	-6.18220e-04,	-6.46359e-06	
28	6.309573e+02	-6.18277e-04,	-5.42350e-06	
29	7.943282e+02	-6.18313e-04,	-4.67133e-06	
30	1.000000e+03	-6.18335e-04,	-4.16746e-06	
31	1.258925e+03	-6.18350e-04,	-3.88529e-06	
32	1.584893e+03	-6.18360e-04,	-3.80991e-06	
33	1.995262e+03	-6.18366e-04,	-3.93736e-06	
34	2.511886e+03	-6.18372e-04,	-4.27446e-06	
35	3.162278e+03	-6.18377e-04,	-4.83918e-06	
36	3.981072e+03	-6.18382e-04,	-5.66158e-06	
37	5.011872e+03	-6.18390e-04,	-6.78546e-06	
38	6.309573e+03	-6.18402e-04,	-8.27066e-06	
39	7.943282e+03	-6.18419e-04,	-1.01962e-05	
40	1.000000e+04	-6.18447e-04,	-1.26647e-05	
41	1.258925e+04	-6.18490e-04,	-1.58073e-05	
42	1.584893e+04	-6.18558e-04,	-1.97911e-05	
43	1.995262e+04	-6.18667e-04,	-2.48279e-05	
44	2.511886e+04	-6.18838e-04,	-3.11849e-05	
45	3.162278e+04	-6.19110e-04,	-3.91983e-05	
46	3.981072e+04	-6.19541e-04,	-4.92911e-05	
47	5.011872e+04	-6.20223e-04,	-6.19924e-05	
48	6.309573e+04	-6.21302e-04,	-7.79624e-05	
49	7.943282e+04	-6.23008e-04,	-9.80193e-05	
50	1.000000e+05	-6.25701e-04,	-1.23167e-04	
51	1.258925e+05	-6.29943e-04,	-1.54620e-04	
52	1.584893e+05	-6.36602e-04,	-1.93803e-04	
53	1.995262e+05	-6.46997e-04,	-2.42325e-04	
54	2.511886e+05	-6.63084e-04,	-3.01847e-04	

Index   frequency       vin#branch                      
--------------------------------------------------------------------------------
55	3.162278e+05	-6.87652e-04,	-3.73822e-04	
56	3.981072e+05	-7.24420e-04,	-4.58989e-04	
57	5.011872e+05	-7.77826e-04,	-5.56624e-04	
58	6.309573e+05	-8.52149e-04,	-6.63722e-04	
59	7.943282e+05	-9.49718e-04,	-7.74747e-04	
60	1.000000e+06	-1.06867e-03,	-8.82952e-04	
61	1.258925e+06	-1.20186e-03,	-9.83780e-04	
62	1.584893e+06	-1.33882e-03,	-1.07888e-03	
63	1.995262e+06	-1.47061e-03,	-1.17776e-03	
64	2.511886e+06	-1.59447e-03,	-1.29560e-03	
65	3.162278e+06	-1.71568e-03,	-1.44914e-03	
66	3.981072e+06	-1.84712e-03,	-1.65314e-03	
67	5.011872e+06	-2.00824e-03,	-1.91825e-03	
68	6.309573e+06	-2.22474e-03,	-2.24891e-03	
69	7.943282e+06	-2.52806e-03,	-2.63971e-03	
70	1.000000e+07	-2.95265e-03,	-3.06986e-03	
71	1.258925e+07	-3.52786e-03,	-3.49738e-03	
72	1.584893e+07	-4.26313e-03,	-3.85862e-03	
73	1.995262e+07	-5.13118e-03,	-4.08064e-03	
74	2.511886e+07	-6.06266e-03,	-4.10800e-03	
75	3.162278e+07	-6.96438e-03,	-3.92985e-03	
76	3.981072e+07	-7.75405e-03,	-3.58554e-03	
77	5.011872e+07	-8.38707e-03,	-3.14358e-03	
78	6.309573e+07	-8.85948e-03,	-2.67221e-03	
79	7.943282e+07	-9.19354e-03,	-2.22103e-03	
80	1.000000e+08	-9.42086e-03,	-1.81745e-03	
v(in2)[40]/vin#branch[40]/(-1000) = 1.516277e+00,-3.30984e-02
max                 =  3.419882e+01 at=  3.981072e+03
lower               =  1.587337e+01
upper               =  1.225029e+06
Zin_TAB
Zin = -1516.28 + 33.0984 j
Zin_END
results_TAB
V-Gain = 34.1988
Bandwidth = 1.22501E+06
CO-lowerFreq = 15.8734
CO-higherFreq = 1.22503E+06
results_END
**************
cost_TAB
Cost = 2198
merit = 1200.76
cost_END
**************
Doing analysis at TEMP = 27.000000 and TNOM = 27.000000


No. of Data Rows : 1
	Node                                  Voltage
	----                                  -------
	----	-------
	out                              0.000000e+00
	emit2                            5.712659e+00
	emit                             1.457145e-01
	coll                             5.005287e+00
	base                             8.007609e-01
	in2                              0.000000e+00
	in                               0.000000e+00
	vcc                              1.200000e+01

	Source	Current
	------	-------

	vcc#branch                       -1.21670e-02
	vin#branch                       0.000000e+00

 BJT models (Bipolar Junction Transistor)
      model                bc557a                bc547a

       type                   pnp                   npn
       tnom                    27                    27
         is             2.059e-14             1.533e-14
         bf                 227.3                 178.7
         nf                 1.003                 1.002
        vaf                  37.2                  69.7
        ikf               0.08719                0.1216
        ise             2.971e-15             7.932e-16
         ne                 1.316                 1.436
         br                  7.69                 8.628
         nr                 1.007                 1.004
        var                 11.42                  44.7
        ikr               0.07646                0.1121
        isc             1.339e-14             8.305e-14
         nc                  1.15                 1.207
         rb                     1                     1
        irb                 1e-06                 1e-06
        rbm                     1                     1
         re                 0.688                0.6395
         rc                0.6437                0.6508
        cje               1.4e-11              1.61e-11
        vje                0.5912                0.4209
        mje                0.3572                0.3071
         tf             7.046e-10             4.995e-10
        xtf                 4.217                   139
        vtf                 5.367                 3.523
        itf                0.1947                0.7021
        ptf                     0                     0
        cjc             1.113e-11             4.388e-12
        vjc                   0.1                   0.2
        mjc                0.3414                0.2793
       xcjc                0.6288                0.6193
         tr                 0.001                 0.001
        cjs                     0                     0
        vjs                  0.75                  0.75
        mjs                     0                     0
        xtb                   1.5                   1.5
         eg                  1.11                  1.11
        xti                     3                     3
         fc                0.7947                0.7762
         kf                     0                     0
         af                     0                     0
        iss                     0                     0
         ns                     1                     1
       tlev                     0                     0
      tlevc                     0                     0
       tbf1                     0                     0
       tbf2                     0                     0
       tbr1                     0                     0
       tbr2                     0                     0
      tikf1                     0                     0
      tikf2                     0                     0
      tikr1                     0                     0
      tikr2                     0                     0
      tirb1                     0                     0
      tirb2                     0                     0
       tnc1                     0                     0
       tnc2                     0                     0
       tne1                     0                     0
       tne2                     0                     0
       tnf1                     0                     0
       tnf2                     0                     0
       tnr1                     0                     0
       tnr2                     0                     0
       trb1                     0                     0
       trb2                     0                     0
       trc1                     0                     0
       trc2                     0                     0
       tre1                     0                     0
       tre2                     0                     0
       trm1                     0                     0
       trm2                     0                     0
      tvaf1                     0                     0
      tvaf2                     0                     0
      tvar1                     0                     0
      tvar2                     0                     0
        ctc                     0                     0
        cte                     0                     0
        cts                     0                     0
       tvjc                     0                     0
       tvje                     0                     0
       tvjs                     0                     0
      titf1                     0                     0
      titf2                     0                     0
       ttf1                     0                     0
       ttf2                     0                     0
       ttr1                     0                     0
       ttr2                     0                     0
      tmje1                     0                     0
      tmje2                     0                     0
      tmjc1                     0                     0
      tmjc2                     0                     0
      tmjs1                     0                     0
      tmjs2                     0                     0
       tns1                     0                     0
       tns2                     0                     0
        nkf                   0.5                   0.5
       tis1                     0                     0
       tis2                     0                     0
      tise1                     0                     0
      tise2                     0                     0
      tisc1                     0                     0
      tisc2                     0                     0
    vbe_max                 1e+99                 1e+99
    vbc_max                 1e+99                 1e+99
    vce_max                 1e+99                 1e+99

 Capacitor models (Fixed capacitor)
      model                     C

        cap                     0
         cj                     0
       cjsw                     0
       defw                 1e-05
       defl                     0
     narrow                     0
      short                     0
        del                     0
        tc1                     0
        tc2                     0
         di                     0
      thick                     0
     bv_max                 1e+99

 Resistor models (Simple linear resistor)
      model                     R

        rsh                     0
     narrow                     0
      short                     0
        tc1                     0
        tc2                     0
        tce                     0
       defw                 1e-05
          l                 1e-05
         kf                     0
         af                     0
          r                     0
     bv_max                 1e+99
         lf                     1
         wf                     1
         ef                     1

 BJT: Bipolar Junction Transistor
     device                    q2                    q1
      model                bc557a                bc547a
         ic             0.0104372            0.00144916
         ib           5.01094e-05           7.87892e-06
         ie            -0.0104873           -0.00145704
        vbe              0.700106              0.654107
        vbc              -4.99862              -4.20359
         gm              0.364512             0.0552424
        gpi            0.00190823           0.000303599
        gmu                 1e-12                 1e-12
         gx                     1                     1
         go           0.000261465           1.98832e-05
        cpi           3.03222e-10           8.03353e-11
        cmu           1.82845e-12           1.14586e-12
        cbx           1.07939e-12           7.04388e-13
       csub                     0                     0

 Capacitor: Fixed capacitor
     device                    co                    cb                    ci
      model                     C                     C                     C
capacitance            0.00064997             0.0007507            0.00075007
      dtemp                     0                     0                     0
     bv_max                 1e+99                 1e+99                 1e+99
          i                     0                     0                     0
          p                     0                     0                    -0

 Resistor: Simple linear resistor
     device                    rl                  rout                    re
      model                     R                     R                     R
 resistance                     8                599.52               100.007
         ac                     8                599.52               100.007
      dtemp                     0                     0                     0
     bv_max                 1e+99                 1e+99                 1e+99
      noisy                     1                     1                     1
          i                     0            -0.0104873            0.00145704
          p                     0             0.0659372           0.000212312

 Resistor: Simple linear resistor
     device                    rc                    r2                    r1
      model                     R                     R                     R
 resistance                4999.6                2935.3                 39900
         ac                4999.6                2935.3                 39900
      dtemp                     0                     0                     0
     bv_max                 1e+99                 1e+99                 1e+99
      noisy                     1                     1                     1
          i            0.00139905           0.000272804           0.000280683
          p            0.00978598           0.000218451            0.00314343

 Resistor: Simple linear resistor
     device                   rin
      model                     R
 resistance                   100
         ac                   100
      dtemp                     0
     bv_max                 1e+99
      noisy                     1
          i                     0
          p                     0

 Vsource: Independent voltage source
     device                   vin                   vcc
         dc                     0                    12
      acmag                     1                     0
      pulse                     0         -
                             0.01          
                             1000          
        sin                     0         -
                             0.01          
                             1000          
        exp                     0         -
                             0.01          
                             1000          
        pwl                     0         -
                             0.01          
                             1000          
       sffm                     0         -
                             0.01          
                             1000          
         am                     0         -
                             0.01          
                             1000          
    trnoise                     0         -
                             0.01          
                             1000          
   trrandom                     0         -
                             0.01          
                             1000          
          i                     0             -0.012167
          p                    -0              0.146004


Total analysis time (seconds) = 0.11

Total elapsed time (seconds) = 0.209 

Total DRAM available = 3935.895 MB.
DRAM currently available =  156.992 MB.
Total ngspice program size =   22.117 MB.
Resident set size =   10.332 MB.
Shared ngspice pages =    8.180 MB.
Text (code) pages =    5.070 MB.
Stack = 0 bytes.
Library pages =    2.375 MB.

