
Circuit: options savecurrents

Doing analysis at TEMP = 27.000000 and TNOM = 27.000000

Warning: vl: no DC value, transient time 0 value used

No. of Data Rows : 1
Doing analysis at TEMP = 27.000000 and TNOM = 27.000000

Warning: vl: no DC value, transient time 0 value used

No. of Data Rows : 71
op_ZO_TAB
Zo = 0.0942824 + 0.00810883 j
Zoabs = 0.0946305
op_ZO_END
ngspice-31 done
