
Circuit: .options savecurrents

false = 0.000000e+00
true = 1.000000e+00
boltz = 1.380649e-23
c = 2.997925e+08
e = 2.718282e+00
echarge = 1.602177e-19
i = 0.000000e+00,1.000000e+00
kelvin = -2.73150e+02
no = 0.000000e+00
pi = 3.141593e+00
planck = 6.626070e-34
yes = 1.000000e+00
Doing analysis at TEMP = 27.000000 and TNOM = 27.000000


No. of Data Rows : 1
**************
NPN_TAB
VCE = 3.01461
VBE = 0.666424
VCE greater than VBE = Correct F.A.R
NPN_END
**************
PNP_TAB
VCE = 4.13043
VEB7.5007 = 0.728441
VEC greater than VEB = Correct F.A.R
PNP_END
Doing analysis at TEMP = 27.000000 and TNOM = 27.000000


Initial Transient Solution
--------------------------

Node                                   Voltage
----                                   -------
vcc                                         12
in                                           0
in2                                          0
base                                    1.0538
coll                                   3.40199
emit                                  0.387377
emit2                                  4.13043
out                                          0
vin#branch                                   0
vcc#branch                           -0.019857


No. of Data Rows : 1008

The file "vo1.ps" may be printed on a postscript printer.
Doing analysis at TEMP = 27.000000 and TNOM = 27.000000


No. of Data Rows : 81

The file "vo1f.ps" may be printed on a postscript printer.
7.5007: no such command available in ngspice

The file "vo2f.ps" may be printed on a postscript printer.
                             .options savecurrents
                             AC Analysis  Sun May 23 23:49:59  2021
--------------------------------------------------------------------------------
Index   frequency       base                            
--------------------------------------------------------------------------------
0	1.000000e+00	9.563064e-01,	6.300199e-02	
1	1.258925e+00	9.578472e-01,	4.915101e-02	
2	1.584893e+00	9.587369e-01,	3.786218e-02	
3	1.995262e+00	9.591673e-01,	2.857821e-02	
4	2.511886e+00	9.592375e-01,	2.084133e-02	
5	3.162278e+00	9.589792e-01,	1.428386e-02	
6	3.981072e+00	9.583733e-01,	8.622710e-03	
7	5.011872e+00	9.573637e-01,	3.659272e-03	
8	6.309573e+00	9.558741e-01,	-7.16319e-04	
9	7.943282e+00	9.538326e-01,	-4.51963e-03	
10	1.000000e+01	9.512104e-01,	-7.67306e-03	
11	1.258925e+01	9.480727e-01,	-1.00315e-02	
12	1.584893e+01	9.446173e-01,	-1.14521e-02	
13	1.995262e+01	9.411537e-01,	-1.18940e-02	
14	2.511886e+01	9.380045e-01,	-1.14796e-02	
15	3.162278e+01	9.353911e-01,	-1.04633e-02	
16	3.981072e+01	9.333845e-01,	-9.13441e-03	
17	5.011872e+01	9.319348e-01,	-7.73029e-03	
18	6.309573e+01	9.309329e-01,	-6.40309e-03	
19	7.943282e+01	9.302619e-01,	-5.22859e-03	
20	1.000000e+02	9.298218e-01,	-4.23076e-03	
21	1.258925e+02	9.295372e-01,	-3.40468e-03	
22	1.584893e+02	9.293547e-01,	-2.73221e-03	
23	1.995262e+02	9.292384e-01,	-2.19108e-03	
24	2.511886e+02	9.291645e-01,	-1.75944e-03	
25	3.162278e+02	9.291177e-01,	-1.41787e-03	
26	3.981072e+02	9.290881e-01,	-1.14998e-03	
27	5.011872e+02	9.290694e-01,	-9.42413e-04	
28	6.309573e+02	9.290576e-01,	-7.84568e-04	
29	7.943282e+02	9.290501e-01,	-6.68272e-04	
30	1.000000e+03	9.290454e-01,	-5.87448e-04	
31	1.258925e+03	9.290423e-01,	-5.37849e-04	
32	1.584893e+03	9.290404e-01,	-5.16864e-04	
33	1.995262e+03	9.290391e-01,	-5.23389e-04	
34	2.511886e+03	9.290381e-01,	-5.57778e-04	
35	3.162278e+03	9.290373e-01,	-6.21867e-04	
36	3.981072e+03	9.290365e-01,	-7.19070e-04	
37	5.011872e+03	9.290355e-01,	-8.54563e-04	
38	6.309573e+03	9.290340e-01,	-1.03556e-03	
39	7.943282e+03	9.290319e-01,	-1.27170e-03	
40	1.000000e+04	9.290285e-01,	-1.57554e-03	
41	1.258925e+04	9.290232e-01,	-1.96326e-03	
42	1.584893e+04	9.290149e-01,	-2.45548e-03	
43	1.995262e+04	9.290016e-01,	-3.07833e-03	
44	2.511886e+04	9.289807e-01,	-3.86489e-03	
45	3.162278e+04	9.289476e-01,	-4.85681e-03	
46	3.981072e+04	9.288951e-01,	-6.10645e-03	
47	5.011872e+04	9.288120e-01,	-7.67943e-03	
48	6.309573e+04	9.286804e-01,	-9.65771e-03	
49	7.943282e+04	9.284723e-01,	-1.21430e-02	
50	1.000000e+05	9.281435e-01,	-1.52605e-02	
51	1.258925e+05	9.276252e-01,	-1.91619e-02	
52	1.584893e+05	9.268104e-01,	-2.40271e-02	
53	1.995262e+05	9.255356e-01,	-3.00605e-02	
54	2.511886e+05	9.235557e-01,	-3.74783e-02	

Index   frequency       base                            
--------------------------------------------------------------------------------
55	3.162278e+05	9.205156e-01,	-4.64771e-02	
56	3.981072e+05	9.159281e-01,	-5.71737e-02	
57	5.011872e+05	9.091837e-01,	-6.95063e-02	
58	6.309573e+05	8.996369e-01,	-8.31112e-02	
59	7.943282e+05	8.868166e-01,	-9.72380e-02	
60	1.000000e+06	8.707463e-01,	-1.10836e-01	
61	1.258925e+06	8.522015e-01,	-1.22937e-01	
62	1.584893e+06	8.326087e-01,	-1.33242e-01	
63	1.995262e+06	8.134716e-01,	-1.42520e-01	
64	2.511886e+06	7.956392e-01,	-1.52481e-01	
65	3.162278e+06	7.788857e-01,	-1.65213e-01	
66	3.981072e+06	7.619170e-01,	-1.82595e-01	
67	5.011872e+06	7.425737e-01,	-2.05912e-01	
68	6.309573e+06	7.180175e-01,	-2.35574e-01	
69	7.943282e+06	6.849286e-01,	-2.70757e-01	
70	1.000000e+07	6.399512e-01,	-3.08900e-01	
71	1.258925e+07	5.806773e-01,	-3.45316e-01	
72	1.584893e+07	5.071758e-01,	-3.73526e-01	
73	1.995262e+07	4.233365e-01,	-3.86945e-01	
74	2.511886e+07	3.366485e-01,	-3.81612e-01	
75	3.162278e+07	2.557630e-01,	-3.58208e-01	
76	3.981072e+07	1.872452e-01,	-3.21617e-01	
77	5.011872e+07	1.338097e-01,	-2.78448e-01	
78	6.309573e+07	9.476419e-02,	-2.34520e-01	
79	7.943282e+07	6.757162e-02,	-1.93668e-01	
80	1.000000e+08	4.926154e-02,	-1.57786e-01	

                             .options savecurrents
                             AC Analysis  Sun May 23 23:49:59  2021
--------------------------------------------------------------------------------
Index   frequency       coll                            
--------------------------------------------------------------------------------
0	1.000000e+00	-2.05177e+01,	-1.54799e+01	
1	1.258925e+00	-2.18482e+01,	-1.86741e+01	
2	1.584893e+00	-2.38661e+01,	-2.25879e+01	
3	1.995262e+00	-2.69004e+01,	-2.71876e+01	
4	2.511886e+00	-3.13621e+01,	-3.22892e+01	
5	3.162278e+00	-3.76848e+01,	-3.74563e+01	
6	3.981072e+00	-4.61642e+01,	-4.19109e+01	
7	5.011872e+00	-5.66858e+01,	-4.45616e+01	
8	6.309573e+00	-6.84442e+01,	-4.42798e+01	
9	7.943282e+00	-7.99133e+01,	-4.04325e+01	
10	1.000000e+01	-8.92904e+01,	-3.33788e+01	
11	1.258925e+01	-9.52589e+01,	-2.44939e+01	
12	1.584893e+01	-9.75534e+01,	-1.56003e+01	
13	1.995262e+01	-9.69337e+01,	-8.18729e+00	
14	2.511886e+01	-9.46566e+01,	-2.93742e+00	
15	3.162278e+01	-9.18736e+01,	2.368713e-01	
16	3.981072e+01	-8.93102e+01,	1.839349e+00	
17	5.011872e+01	-8.72666e+01,	2.439010e+00	
18	6.309573e+01	-8.57721e+01,	2.485159e+00	
19	7.943282e+01	-8.47365e+01,	2.269956e+00	
20	1.000000e+02	-8.40431e+01,	1.959772e+00	
21	1.258925e+02	-8.35888e+01,	1.639355e+00	
22	1.584893e+02	-8.32953e+01,	1.346661e+00	
23	1.995262e+02	-8.31073e+01,	1.095116e+00	
24	2.511886e+02	-8.29875e+01,	8.863444e-01	
25	3.162278e+02	-8.29115e+01,	7.169090e-01	
26	3.981072e+02	-8.28634e+01,	5.816865e-01	
27	5.011872e+02	-8.28329e+01,	4.754463e-01	
28	6.309573e+02	-8.28137e+01,	3.935234e-01	
29	7.943282e+02	-8.28015e+01,	3.320540e-01	
30	1.000000e+03	-8.27938e+01,	2.880155e-01	
31	1.258925e+03	-8.27889e+01,	2.591882e-01	
32	1.584893e+03	-8.27858e+01,	2.441002e-01	
33	1.995262e+03	-8.27838e+01,	2.419796e-01	
34	2.511886e+03	-8.27825e+01,	2.527291e-01	
35	3.162278e+03	-8.27816e+01,	2.769292e-01	
36	3.981072e+03	-8.27808e+01,	3.158723e-01	
37	5.011872e+03	-8.27800e+01,	3.716336e-01	
38	6.309573e+03	-8.27791e+01,	4.471828e-01	
39	7.943282e+03	-8.27779e+01,	5.465415e-01	
40	1.000000e+04	-8.27760e+01,	6.749972e-01	
41	1.258925e+04	-8.27731e+01,	8.393827e-01	
42	1.584893e+04	-8.27685e+01,	1.048436e+00	
43	1.995262e+04	-8.27613e+01,	1.313258e+00	
44	2.511886e+04	-8.27499e+01,	1.647887e+00	
45	3.162278e+04	-8.27319e+01,	2.070016e+00	
46	3.981072e+04	-8.27033e+01,	2.601871e+00	
47	5.011872e+04	-8.26581e+01,	3.271266e+00	
48	6.309573e+04	-8.25865e+01,	4.112841e+00	
49	7.943282e+04	-8.24733e+01,	5.169405e+00	
50	1.000000e+05	-8.22946e+01,	6.493242e+00	
51	1.258925e+05	-8.20127e+01,	8.146976e+00	
52	1.584893e+05	-8.15697e+01,	1.020319e+01	
53	1.995262e+05	-8.08767e+01,	1.274116e+01	
54	2.511886e+05	-7.98009e+01,	1.583788e+01	

Index   frequency       coll                            
--------------------------------------------------------------------------------
55	3.162278e+05	-7.81501e+01,	1.954849e+01	
56	3.981072e+05	-7.56615e+01,	2.387001e+01	
57	5.011872e+05	-7.20089e+01,	2.868337e+01	
58	6.309573e+05	-6.68527e+01,	3.368072e+01	
59	7.943282e+05	-5.99608e+01,	3.831322e+01	
60	1.000000e+06	-5.13913e+01,	4.183341e+01	
61	1.258925e+06	-4.16452e+01,	4.350023e+01	
62	1.584893e+06	-3.16252e+01,	4.289752e+01	
63	1.995262e+06	-2.23395e+01,	4.015231e+01	
64	2.511886e+06	-1.45305e+01,	3.586307e+01	
65	3.162278e+06	-8.48917e+00,	3.080319e+01	
66	3.981072e+06	-4.12255e+00,	2.563726e+01	
67	5.011872e+06	-1.13931e+00,	2.079585e+01	
68	6.309573e+06	7.898243e-01,	1.648950e+01	
69	7.943282e+06	1.946588e+00,	1.278043e+01	
70	1.000000e+07	2.541254e+00,	9.654727e+00	
71	1.258925e+07	2.723019e+00,	7.073236e+00	
72	1.584893e+07	2.604417e+00,	4.997406e+00	
73	1.995262e+07	2.285049e+00,	3.392318e+00	
74	2.511886e+07	1.862208e+00,	2.214682e+00	
75	3.162278e+07	1.423630e+00,	1.401280e+00	
76	3.981072e+07	1.032164e+00,	8.714603e-01	
77	5.011872e+07	7.181770e-01,	5.422719e-01	
78	6.309573e+07	4.850682e-01,	3.436091e-01	
79	7.943282e+07	3.211989e-01,	2.246999e-01	
80	1.000000e+08	2.102344e-01,	1.526661e-01	

                             .options savecurrents
                             AC Analysis  Sun May 23 23:49:59  2021
--------------------------------------------------------------------------------
Index   frequency       emit                            
--------------------------------------------------------------------------------
0	1.000000e+00	8.849522e-01,	-1.07864e-04	
1	1.258925e+00	8.838120e-01,	-2.79048e-02	
2	1.584893e+00	8.806150e-01,	-5.69071e-02	
3	1.995262e+00	8.747669e-01,	-8.83098e-02	
4	2.511886e+00	8.652353e-01,	-1.23178e-01	
5	3.162278e+00	8.504833e-01,	-1.62299e-01	
6	3.981072e+00	8.284449e-01,	-2.05937e-01	
7	5.011872e+00	7.966135e-01,	-2.53493e-01	
8	6.309573e+00	7.523271e-01,	-3.03114e-01	
9	7.943282e+00	6.933326e-01,	-3.51344e-01	
10	1.000000e+01	6.187377e-01,	-3.92995e-01	
11	1.258925e+01	5.303190e-01,	-4.21713e-01	
12	1.584893e+01	4.335231e-01,	-4.31742e-01	
13	1.995262e+01	3.368489e-01,	-4.20533e-01	
14	2.511886e+01	2.491444e-01,	-3.90337e-01	
15	3.162278e+01	1.764611e-01,	-3.47275e-01	
16	3.981072e+01	1.206993e-01,	-2.98592e-01	
17	5.011872e+01	8.043081e-02,	-2.50247e-01	
18	6.309573e+01	5.261396e-02,	-2.05956e-01	
19	7.943282e+01	3.398576e-02,	-1.67417e-01	
20	1.000000e+02	2.176964e-02,	-1.34975e-01	
21	1.258925e+02	1.386842e-02,	-1.08237e-01	
22	1.584893e+02	8.803644e-03,	-8.64969e-02	
23	1.995262e+02	5.575724e-03,	-6.89708e-02	
24	2.511886e+02	3.526036e-03,	-5.49185e-02	
25	3.162278e+02	2.227549e-03,	-4.36903e-02	
26	3.981072e+02	1.406171e-03,	-3.47381e-02	
27	5.011872e+02	8.870816e-04,	-2.76103e-02	
28	6.309573e+02	5.592257e-04,	-2.19401e-02	
29	7.943282e+02	3.522299e-04,	-1.74319e-02	
30	1.000000e+03	2.215715e-04,	-1.38488e-02	
31	1.258925e+03	1.391106e-04,	-1.10015e-02	
32	1.584893e+03	8.707294e-05,	-8.73938e-03	
33	1.995262e+03	5.423603e-05,	-6.94220e-03	
34	2.511886e+03	3.351602e-05,	-5.51452e-03	
35	3.162278e+03	2.044204e-05,	-4.38040e-03	
36	3.981072e+03	1.219271e-05,	-3.47951e-03	
37	5.011872e+03	6.987661e-06,	-2.76389e-03	
38	6.309573e+03	3.703469e-06,	-2.19544e-03	
39	7.943282e+03	1.631281e-06,	-1.74390e-03	
40	1.000000e+04	3.238317e-07,	-1.38523e-03	
41	1.258925e+04	-5.01087e-07,	-1.10032e-03	
42	1.584893e+04	-1.02153e-06,	-8.74011e-04	
43	1.995262e+04	-1.34984e-06,	-6.94244e-04	
44	2.511886e+04	-1.55687e-06,	-5.51447e-04	
45	3.162278e+04	-1.68732e-06,	-4.38017e-04	
46	3.981072e+04	-1.76935e-06,	-3.47913e-04	
47	5.011872e+04	-1.82065e-06,	-2.76337e-04	
48	6.309573e+04	-1.85232e-06,	-2.19477e-04	
49	7.943282e+04	-1.87117e-06,	-1.74305e-04	
50	1.000000e+05	-1.88129e-06,	-1.38415e-04	
51	1.258925e+05	-1.88489e-06,	-1.09896e-04	
52	1.584893e+05	-1.88278e-06,	-8.72307e-05	
53	1.995262e+05	-1.87462e-06,	-6.92115e-05	
54	2.511886e+05	-1.85893e-06,	-5.48801e-05	

Index   frequency       emit                            
--------------------------------------------------------------------------------
55	3.162278e+05	-1.83298e-06,	-4.34750e-05	
56	3.981072e+05	-1.79271e-06,	-3.43921e-05	
57	5.011872e+05	-1.73290e-06,	-2.71537e-05	
58	6.309573e+05	-1.64805e-06,	-2.13834e-05	
59	7.943282e+05	-1.53436e-06,	-1.67874e-05	
60	1.000000e+06	-1.39278e-06,	-1.31375e-05	
61	1.258925e+06	-1.23151e-06,	-1.02544e-05	
62	1.584893e+06	-1.06529e-06,	-7.99312e-06	
63	1.995262e+06	-9.10532e-07,	-6.23056e-06	
64	2.511886e+06	-7.79136e-07,	-4.86070e-06	
65	3.162278e+06	-6.75363e-07,	-3.79423e-06	
66	3.981072e+06	-5.96877e-07,	-2.95934e-06	
67	5.011872e+06	-5.37708e-07,	-2.30056e-06	
68	6.309573e+06	-4.90823e-07,	-1.77630e-06	
69	7.943282e+06	-4.49565e-07,	-1.35593e-06	
70	1.000000e+07	-4.08337e-07,	-1.01744e-06	
71	1.258925e+07	-3.63149e-07,	-7.45697e-07	
72	1.584893e+07	-3.12341e-07,	-5.30738e-07	
73	1.995262e+07	-2.57184e-07,	-3.65758e-07	
74	2.511886e+07	-2.01560e-07,	-2.44678e-07	
75	3.162278e+07	-1.50328e-07,	-1.60367e-07	
76	3.981072e+07	-1.07233e-07,	-1.04514e-07	
77	5.011872e+07	-7.37564e-08,	-6.88501e-08	
78	6.309573e+07	-4.93506e-08,	-4.64661e-08	
79	7.943282e+07	-3.23767e-08,	-3.23601e-08	
80	1.000000e+08	-2.09569e-08,	-2.32713e-08	

                             .options savecurrents
                             AC Analysis  Sun May 23 23:49:59  2021
--------------------------------------------------------------------------------
Index   frequency       emit2                           
--------------------------------------------------------------------------------
0	1.000000e+00	-2.05241e+01,	-1.51945e+01	
1	1.258925e+00	-2.19135e+01,	-1.83014e+01	
2	1.584893e+00	-2.40204e+01,	-2.20892e+01	
3	1.995262e+00	-2.71842e+01,	-2.65011e+01	
4	2.511886e+00	-3.18253e+01,	-3.13153e+01	
5	3.162278e+00	-3.83750e+01,	-3.60363e+01	
6	3.981072e+00	-4.70980e+01,	-3.98046e+01	
7	5.011872e+00	-5.77932e+01,	-4.14374e+01	
8	6.309573e+00	-6.94909e+01,	-3.97467e+01	
9	7.943282e+00	-8.04372e+01,	-3.41383e+01	
10	1.000000e+01	-8.86125e+01,	-2.51650e+01	
11	1.258925e+01	-9.26129e+01,	-1.45368e+01	
12	1.584893e+01	-9.23050e+01,	-4.44010e+00	
13	1.995262e+01	-8.87787e+01,	3.401802e+00	
14	2.511886e+01	-8.36834e+01,	8.299182e+00	
15	3.162278e+01	-7.84703e+01,	1.052754e+01	
16	3.981072e+01	-7.39973e+01,	1.085601e+01	
17	5.011872e+01	-7.05543e+01,	1.008815e+01	
18	6.309573e+01	-6.80843e+01,	8.829379e+00	
19	7.943282e+01	-6.63918e+01,	7.452239e+00	
20	1.000000e+02	-6.52662e+01,	6.150447e+00	
21	1.258925e+02	-6.45317e+01,	5.005890e+00	
22	1.584893e+02	-6.40583e+01,	4.039500e+00	
23	1.995262e+02	-6.37556e+01,	3.242909e+00	
24	2.511886e+02	-6.35629e+01,	2.595976e+00	
25	3.162278e+02	-6.34407e+01,	2.075638e+00	
26	3.981072e+02	-6.33633e+01,	1.659962e+00	
27	5.011872e+02	-6.33144e+01,	1.329732e+00	
28	6.309573e+02	-6.32835e+01,	1.068831e+00	
29	7.943282e+02	-6.32639e+01,	8.641047e-01	
30	1.000000e+03	-6.32516e+01,	7.050213e-01	
31	1.258925e+03	-6.32438e+01,	5.832955e-01	
32	1.584893e+03	-6.32389e+01,	4.925384e-01	
33	1.995262e+03	-6.32357e+01,	4.279636e-01	
34	2.511886e+03	-6.32337e+01,	3.861557e-01	
35	3.162278e+03	-6.32323e+01,	3.649000e-01	
36	3.981072e+03	-6.32313e+01,	3.630702e-01	
37	5.011872e+03	-6.32305e+01,	3.805715e-01	
38	6.309573e+03	-6.32296e+01,	4.183366e-01	
39	7.943282e+03	-6.32285e+01,	4.783758e-01	
40	1.000000e+04	-6.32270e+01,	5.638836e-01	
41	1.258925e+04	-6.32248e+01,	6.794078e-01	
42	1.584893e+04	-6.32213e+01,	8.310882e-01	
43	1.995262e+04	-6.32158e+01,	1.026978e+00	
44	2.511886e+04	-6.32071e+01,	1.277460e+00	
45	3.162278e+04	-6.31933e+01,	1.595776e+00	
46	3.981072e+04	-6.31715e+01,	1.998682e+00	
47	5.011872e+04	-6.31369e+01,	2.507249e+00	
48	6.309573e+04	-6.30823e+01,	3.147788e+00	
49	7.943282e+04	-6.29959e+01,	3.952878e+00	
50	1.000000e+05	-6.28594e+01,	4.962352e+00	
51	1.258925e+05	-6.26442e+01,	6.223957e+00	
52	1.584893e+05	-6.23060e+01,	7.793053e+00	
53	1.995262e+05	-6.17769e+01,	9.730133e+00	
54	2.511886e+05	-6.09556e+01,	1.209394e+01	

Index   frequency       emit2                           
--------------------------------------------------------------------------------
55	3.162278e+05	-5.96952e+01,	1.492656e+01	
56	3.981072e+05	-5.77952e+01,	1.822568e+01	
57	5.011872e+05	-5.50066e+01,	2.190040e+01	
58	6.309573e+05	-5.10701e+01,	2.571568e+01	
59	7.943282e+05	-4.58083e+01,	2.925250e+01	
60	1.000000e+06	-3.92658e+01,	3.194021e+01	
61	1.258925e+06	-3.18250e+01,	3.321303e+01	
62	1.584893e+06	-2.41750e+01,	3.275327e+01	
63	1.995262e+06	-1.70856e+01,	3.065791e+01	
64	2.511886e+06	-1.11236e+01,	2.738390e+01	
65	3.162278e+06	-6.51099e+00,	2.352171e+01	
66	3.981072e+06	-3.17687e+00,	1.957875e+01	
67	5.011872e+06	-8.98705e-01,	1.588379e+01	
68	6.309573e+06	5.749688e-01,	1.259754e+01	
69	7.943282e+06	1.459369e+00,	9.767470e+00	
70	1.000000e+07	1.915150e+00,	7.382868e+00	
71	1.258925e+07	2.056305e+00,	5.413644e+00	
72	1.584893e+07	1.968737e+00,	3.830106e+00	
73	1.995262e+07	1.728324e+00,	2.605332e+00	
74	2.511886e+07	1.409037e+00,	1.706115e+00	
75	3.162278e+07	1.077500e+00,	1.084221e+00	
76	3.981072e+07	7.814291e-01,	6.782776e-01	
77	5.011872e+07	5.438950e-01,	4.252294e-01	
78	6.309573e+07	3.675206e-01,	2.717928e-01	
79	7.943282e+07	2.435238e-01,	1.793638e-01	
80	1.000000e+08	1.595548e-01,	1.229201e-01	

                             .options savecurrents
                             AC Analysis  Sun May 23 23:49:59  2021
--------------------------------------------------------------------------------
Index   frequency       in                              
--------------------------------------------------------------------------------
0	1.000000e+00	1.000000e+00,	0.000000e+00	
1	1.258925e+00	1.000000e+00,	0.000000e+00	
2	1.584893e+00	1.000000e+00,	0.000000e+00	
3	1.995262e+00	1.000000e+00,	0.000000e+00	
4	2.511886e+00	1.000000e+00,	0.000000e+00	
5	3.162278e+00	1.000000e+00,	0.000000e+00	
6	3.981072e+00	1.000000e+00,	0.000000e+00	
7	5.011872e+00	1.000000e+00,	0.000000e+00	
8	6.309573e+00	1.000000e+00,	0.000000e+00	
9	7.943282e+00	1.000000e+00,	0.000000e+00	
10	1.000000e+01	1.000000e+00,	0.000000e+00	
11	1.258925e+01	1.000000e+00,	0.000000e+00	
12	1.584893e+01	1.000000e+00,	0.000000e+00	
13	1.995262e+01	1.000000e+00,	0.000000e+00	
14	2.511886e+01	1.000000e+00,	0.000000e+00	
15	3.162278e+01	1.000000e+00,	0.000000e+00	
16	3.981072e+01	1.000000e+00,	0.000000e+00	
17	5.011872e+01	1.000000e+00,	0.000000e+00	
18	6.309573e+01	1.000000e+00,	0.000000e+00	
19	7.943282e+01	1.000000e+00,	0.000000e+00	
20	1.000000e+02	1.000000e+00,	0.000000e+00	
21	1.258925e+02	1.000000e+00,	0.000000e+00	
22	1.584893e+02	1.000000e+00,	0.000000e+00	
23	1.995262e+02	1.000000e+00,	0.000000e+00	
24	2.511886e+02	1.000000e+00,	0.000000e+00	
25	3.162278e+02	1.000000e+00,	0.000000e+00	
26	3.981072e+02	1.000000e+00,	0.000000e+00	
27	5.011872e+02	1.000000e+00,	0.000000e+00	
28	6.309573e+02	1.000000e+00,	0.000000e+00	
29	7.943282e+02	1.000000e+00,	0.000000e+00	
30	1.000000e+03	1.000000e+00,	0.000000e+00	
31	1.258925e+03	1.000000e+00,	0.000000e+00	
32	1.584893e+03	1.000000e+00,	0.000000e+00	
33	1.995262e+03	1.000000e+00,	0.000000e+00	
34	2.511886e+03	1.000000e+00,	0.000000e+00	
35	3.162278e+03	1.000000e+00,	0.000000e+00	
36	3.981072e+03	1.000000e+00,	0.000000e+00	
37	5.011872e+03	1.000000e+00,	0.000000e+00	
38	6.309573e+03	1.000000e+00,	0.000000e+00	
39	7.943282e+03	1.000000e+00,	0.000000e+00	
40	1.000000e+04	1.000000e+00,	0.000000e+00	
41	1.258925e+04	1.000000e+00,	0.000000e+00	
42	1.584893e+04	1.000000e+00,	0.000000e+00	
43	1.995262e+04	1.000000e+00,	0.000000e+00	
44	2.511886e+04	1.000000e+00,	0.000000e+00	
45	3.162278e+04	1.000000e+00,	0.000000e+00	
46	3.981072e+04	1.000000e+00,	0.000000e+00	
47	5.011872e+04	1.000000e+00,	0.000000e+00	
48	6.309573e+04	1.000000e+00,	0.000000e+00	
49	7.943282e+04	1.000000e+00,	0.000000e+00	
50	1.000000e+05	1.000000e+00,	0.000000e+00	
51	1.258925e+05	1.000000e+00,	0.000000e+00	
52	1.584893e+05	1.000000e+00,	0.000000e+00	
53	1.995262e+05	1.000000e+00,	0.000000e+00	
54	2.511886e+05	1.000000e+00,	0.000000e+00	

Index   frequency       in                              
--------------------------------------------------------------------------------
55	3.162278e+05	1.000000e+00,	0.000000e+00	
56	3.981072e+05	1.000000e+00,	0.000000e+00	
57	5.011872e+05	1.000000e+00,	0.000000e+00	
58	6.309573e+05	1.000000e+00,	0.000000e+00	
59	7.943282e+05	1.000000e+00,	0.000000e+00	
60	1.000000e+06	1.000000e+00,	0.000000e+00	
61	1.258925e+06	1.000000e+00,	0.000000e+00	
62	1.584893e+06	1.000000e+00,	0.000000e+00	
63	1.995262e+06	1.000000e+00,	0.000000e+00	
64	2.511886e+06	1.000000e+00,	0.000000e+00	
65	3.162278e+06	1.000000e+00,	0.000000e+00	
66	3.981072e+06	1.000000e+00,	0.000000e+00	
67	5.011872e+06	1.000000e+00,	0.000000e+00	
68	6.309573e+06	1.000000e+00,	0.000000e+00	
69	7.943282e+06	1.000000e+00,	0.000000e+00	
70	1.000000e+07	1.000000e+00,	0.000000e+00	
71	1.258925e+07	1.000000e+00,	0.000000e+00	
72	1.584893e+07	1.000000e+00,	0.000000e+00	
73	1.995262e+07	1.000000e+00,	0.000000e+00	
74	2.511886e+07	1.000000e+00,	0.000000e+00	
75	3.162278e+07	1.000000e+00,	0.000000e+00	
76	3.981072e+07	1.000000e+00,	0.000000e+00	
77	5.011872e+07	1.000000e+00,	0.000000e+00	
78	6.309573e+07	1.000000e+00,	0.000000e+00	
79	7.943282e+07	1.000000e+00,	0.000000e+00	
80	1.000000e+08	1.000000e+00,	0.000000e+00	

                             .options savecurrents
                             AC Analysis  Sun May 23 23:49:59  2021
--------------------------------------------------------------------------------
Index   frequency       in2                             
--------------------------------------------------------------------------------
0	1.000000e+00	9.659062e-01,	-4.82541e-03	
1	1.258925e+00	9.657374e-01,	-4.99298e-03	
2	1.584893e+00	9.655273e-01,	-5.40964e-03	
3	1.995262e+00	9.652349e-01,	-6.08540e-03	
4	2.511886e+00	9.648068e-01,	-7.03196e-03	
5	3.162278e+00	9.641729e-01,	-8.25554e-03	
6	3.981072e+00	9.632433e-01,	-9.74548e-03	
7	5.011872e+00	9.619124e-01,	-1.14594e-02	
8	6.309573e+00	9.600697e-01,	-1.33065e-02	
9	7.943282e+00	9.576228e-01,	-1.51332e-02	
10	1.000000e+01	9.545363e-01,	-1.67178e-02	
11	1.258925e+01	9.508844e-01,	-1.77930e-02	
12	1.584893e+01	9.468916e-01,	-1.81186e-02	
13	1.995262e+01	9.429072e-01,	-1.75866e-02	
14	2.511886e+01	9.392945e-01,	-1.62875e-02	
15	3.162278e+01	9.363015e-01,	-1.44707e-02	
16	3.981072e+01	9.340058e-01,	-1.24323e-02	
17	5.011872e+01	9.323482e-01,	-1.04157e-02	
18	6.309573e+01	9.312032e-01,	-8.57228e-03	
19	7.943282e+01	9.304365e-01,	-6.97085e-03	
20	1.000000e+02	9.299337e-01,	-5.62469e-03	
21	1.258925e+02	9.296085e-01,	-4.51705e-03	
22	1.584893e+02	9.294001e-01,	-3.61841e-03	
23	1.995262e+02	9.292673e-01,	-2.89634e-03	
24	2.511886e+02	9.291829e-01,	-2.32032e-03	
25	3.162278e+02	9.291295e-01,	-1.86373e-03	
26	3.981072e+02	9.290956e-01,	-1.50431e-03	
27	5.011872e+02	9.290743e-01,	-1.22395e-03	
28	6.309573e+02	9.290608e-01,	-1.00824e-03	
29	7.943282e+02	9.290522e-01,	-8.45965e-04	
30	1.000000e+03	9.290468e-01,	-7.28605e-04	
31	1.258925e+03	9.290434e-01,	-6.49980e-04	
32	1.584893e+03	9.290411e-01,	-6.05935e-04	
33	1.995262e+03	9.290397e-01,	-5.94142e-04	
34	2.511886e+03	9.290386e-01,	-6.13980e-04	
35	3.162278e+03	9.290377e-01,	-6.66510e-04	
36	3.981072e+03	9.290369e-01,	-7.54532e-04	
37	5.011872e+03	9.290358e-01,	-8.82732e-04	
38	6.309573e+03	9.290344e-01,	-1.05794e-03	
39	7.943282e+03	9.290322e-01,	-1.28947e-03	
40	1.000000e+04	9.290288e-01,	-1.58966e-03	
41	1.258925e+04	9.290235e-01,	-1.97448e-03	
42	1.584893e+04	9.290152e-01,	-2.46439e-03	
43	1.995262e+04	9.290020e-01,	-3.08541e-03	
44	2.511886e+04	9.289810e-01,	-3.87052e-03	
45	3.162278e+04	9.289479e-01,	-4.86128e-03	
46	3.981072e+04	9.288954e-01,	-6.11000e-03	
47	5.011872e+04	9.288123e-01,	-7.68226e-03	
48	6.309573e+04	9.286807e-01,	-9.65996e-03	
49	7.943282e+04	9.284726e-01,	-1.21448e-02	
50	1.000000e+05	9.281438e-01,	-1.52619e-02	
51	1.258925e+05	9.276255e-01,	-1.91631e-02	
52	1.584893e+05	9.268107e-01,	-2.40280e-02	
53	1.995262e+05	9.255359e-01,	-3.00612e-02	
54	2.511886e+05	9.235560e-01,	-3.74789e-02	

Index   frequency       in2                             
--------------------------------------------------------------------------------
55	3.162278e+05	9.205159e-01,	-4.64776e-02	
56	3.981072e+05	9.159284e-01,	-5.71741e-02	
57	5.011872e+05	9.091840e-01,	-6.95066e-02	
58	6.309573e+05	8.996371e-01,	-8.31115e-02	
59	7.943282e+05	8.868168e-01,	-9.72383e-02	
60	1.000000e+06	8.707466e-01,	-1.10836e-01	
61	1.258925e+06	8.522017e-01,	-1.22938e-01	
62	1.584893e+06	8.326089e-01,	-1.33242e-01	
63	1.995262e+06	8.134717e-01,	-1.42520e-01	
64	2.511886e+06	7.956393e-01,	-1.52481e-01	
65	3.162278e+06	7.788858e-01,	-1.65213e-01	
66	3.981072e+06	7.619171e-01,	-1.82595e-01	
67	5.011872e+06	7.425738e-01,	-2.05912e-01	
68	6.309573e+06	7.180176e-01,	-2.35574e-01	
69	7.943282e+06	6.849287e-01,	-2.70757e-01	
70	1.000000e+07	6.399513e-01,	-3.08900e-01	
71	1.258925e+07	5.806773e-01,	-3.45316e-01	
72	1.584893e+07	5.071759e-01,	-3.73526e-01	
73	1.995262e+07	4.233366e-01,	-3.86945e-01	
74	2.511886e+07	3.366485e-01,	-3.81612e-01	
75	3.162278e+07	2.557630e-01,	-3.58208e-01	
76	3.981072e+07	1.872452e-01,	-3.21617e-01	
77	5.011872e+07	1.338097e-01,	-2.78448e-01	
78	6.309573e+07	9.476420e-02,	-2.34520e-01	
79	7.943282e+07	6.757162e-02,	-1.93668e-01	
80	1.000000e+08	4.926154e-02,	-1.57786e-01	

                             .options savecurrents
                             AC Analysis  Sun May 23 23:49:59  2021
--------------------------------------------------------------------------------
Index   frequency       out                             
--------------------------------------------------------------------------------
0	1.000000e+00	4.391868e-01,	-6.32236e-01	
1	1.258925e+00	6.623268e-01,	-8.57166e-01	
2	1.584893e+00	9.986828e-01,	-1.19589e+00	
3	1.995262e+00	1.490884e+00,	-1.72555e+00	
4	2.511886e+00	2.177200e+00,	-2.57592e+00	
5	3.162278e+00	3.059974e+00,	-3.95173e+00	
6	3.981072e+00	4.041959e+00,	-6.14019e+00	
7	5.011872e+00	4.832590e+00,	-9.46617e+00	
8	6.309573e+00	4.870769e+00,	-1.41505e+01	
9	7.943282e+00	3.368613e+00,	-2.00768e+01	
10	1.000000e+01	-4.31239e-01,	-2.65948e+01	
11	1.258925e+01	-6.84486e+00,	-3.25647e+01	
12	1.584893e+01	-1.54396e+01,	-3.67411e+01	
13	1.995262e+01	-2.51043e+01,	-3.83165e+01	
14	2.511886e+01	-3.45089e+01,	-3.72530e+01	
15	3.162278e+01	-4.26353e+01,	-3.41766e+01	
16	3.981072e+01	-4.90288e+01,	-2.99787e+01	
17	5.011872e+01	-5.37173e+01,	-2.54499e+01	
18	6.309573e+01	-5.69868e+01,	-2.11176e+01	
19	7.943282e+01	-5.91892e+01,	-1.72549e+01	
20	1.000000e+02	-6.06388e+01,	-1.39557e+01	
21	1.258925e+02	-6.15786e+01,	-1.12125e+01	
22	1.584893e+02	-6.21818e+01,	-8.96945e+00	
23	1.995262e+02	-6.25666e+01,	-7.15442e+00	
24	2.511886e+02	-6.28111e+01,	-5.69519e+00	
25	3.162278e+02	-6.29661e+01,	-4.52651e+00	
26	3.981072e+02	-6.30641e+01,	-3.59248e+00	
27	5.011872e+02	-6.31261e+01,	-2.84653e+00	
28	6.309573e+02	-6.31652e+01,	-2.25055e+00	
29	7.943282e+02	-6.31899e+01,	-1.77360e+00	
30	1.000000e+03	-6.32055e+01,	-1.39070e+00	
31	1.258925e+03	-6.32153e+01,	-1.08165e+00	
32	1.584893e+03	-6.32215e+01,	-8.30108e-01	
33	1.995262e+03	-6.32254e+01,	-6.22716e-01	
34	2.511886e+03	-6.32277e+01,	-4.48460e-01	
35	3.162278e+03	-6.32292e+01,	-2.98074e-01	
36	3.981072e+03	-6.32299e+01,	-1.63555e-01	
37	5.011872e+03	-6.32302e+01,	-3.77436e-02	
38	6.309573e+03	-6.32301e+01,	8.605793e-02	
39	7.943282e+03	-6.32294e+01,	2.144400e-01	
40	1.000000e+04	-6.32282e+01,	3.542361e-01	
41	1.258925e+04	-6.32261e+01,	5.128843e-01	
42	1.584893e+04	-6.32227e+01,	6.988210e-01	
43	1.995262e+04	-6.32173e+01,	9.219233e-01	
44	2.511886e+04	-6.32086e+01,	1.194023e+00	
45	3.162278e+04	-6.31949e+01,	1.529514e+00	
46	3.981072e+04	-6.31731e+01,	1.946067e+00	
47	5.011872e+04	-6.31386e+01,	2.465478e+00	
48	6.309573e+04	-6.30839e+01,	3.114637e+00	
49	7.943282e+04	-6.29975e+01,	3.926581e+00	
50	1.000000e+05	-6.28610e+01,	4.941509e+00	
51	1.258925e+05	-6.26458e+01,	6.207457e+00	
52	1.584893e+05	-6.23076e+01,	7.780017e+00	
53	1.995262e+05	-6.17785e+01,	9.719866e+00	
54	2.511886e+05	-6.09572e+01,	1.208589e+01	

Index   frequency       out                             
--------------------------------------------------------------------------------
55	3.162278e+05	-5.96968e+01,	1.492030e+01	
56	3.981072e+05	-5.77968e+01,	1.822086e+01	
57	5.011872e+05	-5.50081e+01,	2.189676e+01	
58	6.309573e+05	-5.10714e+01,	2.571300e+01	
59	7.943282e+05	-4.58095e+01,	2.925059e+01	
60	1.000000e+06	-3.92668e+01,	3.193891e+01	
61	1.258925e+06	-3.18259e+01,	3.321220e+01	
62	1.584893e+06	-2.41757e+01,	3.275276e+01	
63	1.995262e+06	-1.70861e+01,	3.065763e+01	
64	2.511886e+06	-1.11239e+01,	2.738375e+01	
65	3.162278e+06	-6.51124e+00,	2.352164e+01	
66	3.981072e+06	-3.17703e+00,	1.957873e+01	
67	5.011872e+06	-8.98810e-01,	1.588378e+01	
68	6.309573e+06	5.749026e-01,	1.259754e+01	
69	7.943282e+06	1.459329e+00,	9.767476e+00	
70	1.000000e+07	1.915126e+00,	7.382874e+00	
71	1.258925e+07	2.056291e+00,	5.413649e+00	
72	1.584893e+07	1.968729e+00,	3.830110e+00	
73	1.995262e+07	1.728320e+00,	2.605335e+00	
74	2.511886e+07	1.409035e+00,	1.706116e+00	
75	3.162278e+07	1.077499e+00,	1.084222e+00	
76	3.981072e+07	7.814285e-01,	6.782782e-01	
77	5.011872e+07	5.438948e-01,	4.252297e-01	
78	6.309573e+07	3.675205e-01,	2.717929e-01	
79	7.943282e+07	2.435237e-01,	1.793639e-01	
80	1.000000e+08	1.595547e-01,	1.229202e-01	

                             .options savecurrents
                             AC Analysis  Sun May 23 23:49:59  2021
--------------------------------------------------------------------------------
Index   frequency       vcc                             
--------------------------------------------------------------------------------
0	1.000000e+00	0.000000e+00,	0.000000e+00	
1	1.258925e+00	0.000000e+00,	0.000000e+00	
2	1.584893e+00	0.000000e+00,	0.000000e+00	
3	1.995262e+00	0.000000e+00,	0.000000e+00	
4	2.511886e+00	0.000000e+00,	0.000000e+00	
5	3.162278e+00	0.000000e+00,	0.000000e+00	
6	3.981072e+00	0.000000e+00,	0.000000e+00	
7	5.011872e+00	0.000000e+00,	0.000000e+00	
8	6.309573e+00	0.000000e+00,	0.000000e+00	
9	7.943282e+00	0.000000e+00,	0.000000e+00	
10	1.000000e+01	0.000000e+00,	0.000000e+00	
11	1.258925e+01	0.000000e+00,	0.000000e+00	
12	1.584893e+01	0.000000e+00,	0.000000e+00	
13	1.995262e+01	0.000000e+00,	0.000000e+00	
14	2.511886e+01	0.000000e+00,	0.000000e+00	
15	3.162278e+01	0.000000e+00,	0.000000e+00	
16	3.981072e+01	0.000000e+00,	0.000000e+00	
17	5.011872e+01	0.000000e+00,	0.000000e+00	
18	6.309573e+01	0.000000e+00,	0.000000e+00	
19	7.943282e+01	0.000000e+00,	0.000000e+00	
20	1.000000e+02	0.000000e+00,	0.000000e+00	
21	1.258925e+02	0.000000e+00,	0.000000e+00	
22	1.584893e+02	0.000000e+00,	0.000000e+00	
23	1.995262e+02	0.000000e+00,	0.000000e+00	
24	2.511886e+02	0.000000e+00,	0.000000e+00	
25	3.162278e+02	0.000000e+00,	0.000000e+00	
26	3.981072e+02	0.000000e+00,	0.000000e+00	
27	5.011872e+02	0.000000e+00,	0.000000e+00	
28	6.309573e+02	0.000000e+00,	0.000000e+00	
29	7.943282e+02	0.000000e+00,	0.000000e+00	
30	1.000000e+03	0.000000e+00,	0.000000e+00	
31	1.258925e+03	0.000000e+00,	0.000000e+00	
32	1.584893e+03	0.000000e+00,	0.000000e+00	
33	1.995262e+03	0.000000e+00,	0.000000e+00	
34	2.511886e+03	0.000000e+00,	0.000000e+00	
35	3.162278e+03	0.000000e+00,	0.000000e+00	
36	3.981072e+03	0.000000e+00,	0.000000e+00	
37	5.011872e+03	0.000000e+00,	0.000000e+00	
38	6.309573e+03	0.000000e+00,	0.000000e+00	
39	7.943282e+03	0.000000e+00,	0.000000e+00	
40	1.000000e+04	0.000000e+00,	0.000000e+00	
41	1.258925e+04	0.000000e+00,	0.000000e+00	
42	1.584893e+04	0.000000e+00,	0.000000e+00	
43	1.995262e+04	0.000000e+00,	0.000000e+00	
44	2.511886e+04	0.000000e+00,	0.000000e+00	
45	3.162278e+04	0.000000e+00,	0.000000e+00	
46	3.981072e+04	0.000000e+00,	0.000000e+00	
47	5.011872e+04	0.000000e+00,	0.000000e+00	
48	6.309573e+04	0.000000e+00,	0.000000e+00	
49	7.943282e+04	0.000000e+00,	0.000000e+00	
50	1.000000e+05	0.000000e+00,	0.000000e+00	
51	1.258925e+05	0.000000e+00,	0.000000e+00	
52	1.584893e+05	0.000000e+00,	0.000000e+00	
53	1.995262e+05	0.000000e+00,	0.000000e+00	
54	2.511886e+05	0.000000e+00,	0.000000e+00	

Index   frequency       vcc                             
--------------------------------------------------------------------------------
55	3.162278e+05	0.000000e+00,	0.000000e+00	
56	3.981072e+05	0.000000e+00,	0.000000e+00	
57	5.011872e+05	0.000000e+00,	0.000000e+00	
58	6.309573e+05	0.000000e+00,	0.000000e+00	
59	7.943282e+05	0.000000e+00,	0.000000e+00	
60	1.000000e+06	0.000000e+00,	0.000000e+00	
61	1.258925e+06	0.000000e+00,	0.000000e+00	
62	1.584893e+06	0.000000e+00,	0.000000e+00	
63	1.995262e+06	0.000000e+00,	0.000000e+00	
64	2.511886e+06	0.000000e+00,	0.000000e+00	
65	3.162278e+06	0.000000e+00,	0.000000e+00	
66	3.981072e+06	0.000000e+00,	0.000000e+00	
67	5.011872e+06	0.000000e+00,	0.000000e+00	
68	6.309573e+06	0.000000e+00,	0.000000e+00	
69	7.943282e+06	0.000000e+00,	0.000000e+00	
70	1.000000e+07	0.000000e+00,	0.000000e+00	
71	1.258925e+07	0.000000e+00,	0.000000e+00	
72	1.584893e+07	0.000000e+00,	0.000000e+00	
73	1.995262e+07	0.000000e+00,	0.000000e+00	
74	2.511886e+07	0.000000e+00,	0.000000e+00	
75	3.162278e+07	0.000000e+00,	0.000000e+00	
76	3.981072e+07	0.000000e+00,	0.000000e+00	
77	5.011872e+07	0.000000e+00,	0.000000e+00	
78	6.309573e+07	0.000000e+00,	0.000000e+00	
79	7.943282e+07	0.000000e+00,	0.000000e+00	
80	1.000000e+08	0.000000e+00,	0.000000e+00	

                             .options savecurrents
                             AC Analysis  Sun May 23 23:49:59  2021
--------------------------------------------------------------------------------
Index   frequency       vcc#branch                      
--------------------------------------------------------------------------------
0	1.000000e+00	-5.04661e-02,	-3.74493e-02	
1	1.258925e+00	-5.38705e-02,	-4.51145e-02	
2	1.584893e+00	-5.90328e-02,	-5.44640e-02	
3	1.995262e+00	-6.67861e-02,	-6.53636e-02	
4	2.511886e+00	-7.81618e-02,	-7.72768e-02	
5	3.162278e+00	-9.42220e-02,	-8.89985e-02	
6	3.981072e+00	-1.15626e-01,	-9.84332e-02	
7	5.011872e+00	-1.41898e-01,	-1.02693e-01	
8	6.309573e+00	-1.70692e-01,	-9.88689e-02	
9	7.943282e+00	-1.97748e-01,	-8.54898e-02	
10	1.000000e+01	-2.18148e-01,	-6.38697e-02	
11	1.258925e+01	-2.28459e-01,	-3.81363e-02	
12	1.584893e+01	-2.28322e-01,	-1.35816e-02	
13	1.995262e+01	-2.20338e-01,	5.609856e-03	
14	2.511886e+01	-2.08473e-01,	1.774290e-02	
15	3.162278e+01	-1.96226e-01,	2.345063e-02	
16	3.981072e+01	-1.85675e-01,	2.456215e-02	
17	5.011872e+01	-1.77538e-01,	2.299859e-02	
18	6.309573e+01	-1.71693e-01,	2.021236e-02	
19	7.943282e+01	-1.67685e-01,	1.710084e-02	
20	1.000000e+02	-1.65019e-01,	1.413415e-02	
21	1.258925e+02	-1.63279e-01,	1.151442e-02	
22	1.584893e+02	-1.62157e-01,	9.297219e-03	
23	1.995262e+02	-1.61439e-01,	7.467141e-03	
24	2.511886e+02	-1.60983e-01,	5.979818e-03	
25	3.162278e+02	-1.60693e-01,	4.783180e-03	
26	3.981072e+02	-1.60509e-01,	3.827268e-03	
27	5.011872e+02	-1.60393e-01,	3.068134e-03	
28	6.309573e+02	-1.60320e-01,	2.468854e-03	
29	7.943282e+02	-1.60274e-01,	1.999274e-03	
30	1.000000e+03	-1.60245e-01,	1.635272e-03	
31	1.258925e+03	-1.60226e-01,	1.357908e-03	
32	1.584893e+03	-1.60214e-01,	1.152634e-03	
33	1.995262e+03	-1.60207e-01,	1.008629e-03	
34	2.511886e+03	-1.60202e-01,	9.182810e-04	
35	3.162278e+03	-1.60199e-01,	8.768061e-04	
36	3.981072e+03	-1.60196e-01,	8.820093e-04	
37	5.011872e+03	-1.60194e-01,	9.341736e-04	
38	6.309573e+03	-1.60192e-01,	1.036079e-03	
39	7.943282e+03	-1.60190e-01,	1.193149e-03	
40	1.000000e+04	-1.60186e-01,	1.413742e-03	
41	1.258925e+04	-1.60180e-01,	1.709590e-03	
42	1.584893e+04	-1.60171e-01,	2.096418e-03	
43	1.995262e+04	-1.60157e-01,	2.594763e-03	
44	2.511886e+04	-1.60135e-01,	3.231040e-03	
45	3.162278e+04	-1.60100e-01,	4.038886e-03	
46	3.981072e+04	-1.60045e-01,	5.060830e-03	
47	5.011872e+04	-1.59958e-01,	6.350312e-03	
48	6.309573e+04	-1.59819e-01,	7.974049e-03	
49	7.943282e+04	-1.59600e-01,	1.001463e-02	
50	1.000000e+05	-1.59254e-01,	1.257301e-02	
51	1.258925e+05	-1.58709e-01,	1.577021e-02	
52	1.584893e+05	-1.57852e-01,	1.974652e-02	
53	1.995262e+05	-1.56511e-01,	2.465524e-02	
54	2.511886e+05	-1.54430e-01,	3.064524e-02	

Index   frequency       vcc#branch                      
--------------------------------------------------------------------------------
55	3.162278e+05	-1.51236e-01,	3.782316e-02	
56	3.981072e+05	-1.46422e-01,	4.618316e-02	
57	5.011872e+05	-1.39355e-01,	5.549489e-02	
58	6.309573e+05	-1.29380e-01,	6.516273e-02	
59	7.943282e+05	-1.16047e-01,	7.412490e-02	
60	1.000000e+06	-9.94677e-02,	8.093532e-02	
61	1.258925e+06	-8.06126e-02,	8.416033e-02	
62	1.584893e+06	-6.12275e-02,	8.299481e-02	
63	1.995262e+06	-4.32630e-02,	7.768458e-02	
64	2.511886e+06	-2.81553e-02,	6.938744e-02	
65	3.162278e+06	-1.64672e-02,	5.959969e-02	
66	3.981072e+06	-8.01885e-03,	4.960708e-02	
67	5.011872e+06	-2.24654e-03,	4.024264e-02	
68	6.309573e+06	1.486880e-03,	3.191367e-02	
69	7.943282e+06	3.726661e-03,	2.474048e-02	
70	1.000000e+07	4.879772e-03,	1.869603e-02	
71	1.258925e+07	5.234984e-03,	1.370427e-02	
72	1.584893e+07	5.009987e-03,	9.690219e-03	
73	1.995262e+07	4.397231e-03,	6.585941e-03	
74	2.511886e+07	3.584477e-03,	4.307447e-03	
75	3.162278e+07	2.740927e-03,	2.732482e-03	
76	3.981072e+07	1.987770e-03,	1.705315e-03	
77	5.011872e+07	1.383586e-03,	1.065877e-03	
78	6.309573e+07	9.349921e-04,	6.788979e-04	
79	7.943282e+07	6.196273e-04,	4.463901e-04	
80	1.000000e+08	4.060709e-04,	3.048641e-04	

                             .options savecurrents
                             AC Analysis  Sun May 23 23:49:59  2021
--------------------------------------------------------------------------------
Index   frequency       vin#branch                      
--------------------------------------------------------------------------------
0	1.000000e+00	-3.40938e-04,	-4.82541e-05	
1	1.258925e+00	-3.42626e-04,	-4.99298e-05	
2	1.584893e+00	-3.44727e-04,	-5.40964e-05	
3	1.995262e+00	-3.47651e-04,	-6.08540e-05	
4	2.511886e+00	-3.51932e-04,	-7.03196e-05	
5	3.162278e+00	-3.58271e-04,	-8.25554e-05	
6	3.981072e+00	-3.67567e-04,	-9.74548e-05	
7	5.011872e+00	-3.80876e-04,	-1.14594e-04	
8	6.309573e+00	-3.99303e-04,	-1.33065e-04	
9	7.943282e+00	-4.23772e-04,	-1.51332e-04	
10	1.000000e+01	-4.54637e-04,	-1.67178e-04	
11	1.258925e+01	-4.91156e-04,	-1.77930e-04	
12	1.584893e+01	-5.31084e-04,	-1.81186e-04	
13	1.995262e+01	-5.70928e-04,	-1.75866e-04	
14	2.511886e+01	-6.07055e-04,	-1.62875e-04	
15	3.162278e+01	-6.36985e-04,	-1.44707e-04	
16	3.981072e+01	-6.59942e-04,	-1.24323e-04	
17	5.011872e+01	-6.76518e-04,	-1.04157e-04	
18	6.309573e+01	-6.87968e-04,	-8.57228e-05	
19	7.943282e+01	-6.95635e-04,	-6.97085e-05	
20	1.000000e+02	-7.00663e-04,	-5.62469e-05	
21	1.258925e+02	-7.03915e-04,	-4.51705e-05	
22	1.584893e+02	-7.05999e-04,	-3.61841e-05	
23	1.995262e+02	-7.07327e-04,	-2.89634e-05	
24	2.511886e+02	-7.08171e-04,	-2.32032e-05	
25	3.162278e+02	-7.08705e-04,	-1.86373e-05	
26	3.981072e+02	-7.09044e-04,	-1.50431e-05	
27	5.011872e+02	-7.09257e-04,	-1.22395e-05	
28	6.309573e+02	-7.09392e-04,	-1.00824e-05	
29	7.943282e+02	-7.09478e-04,	-8.45965e-06	
30	1.000000e+03	-7.09532e-04,	-7.28605e-06	
31	1.258925e+03	-7.09566e-04,	-6.49980e-06	
32	1.584893e+03	-7.09589e-04,	-6.05935e-06	
33	1.995262e+03	-7.09603e-04,	-5.94142e-06	
34	2.511886e+03	-7.09614e-04,	-6.13980e-06	
35	3.162278e+03	-7.09623e-04,	-6.66510e-06	
36	3.981072e+03	-7.09631e-04,	-7.54532e-06	
37	5.011872e+03	-7.09642e-04,	-8.82732e-06	
38	6.309573e+03	-7.09656e-04,	-1.05794e-05	
39	7.943282e+03	-7.09678e-04,	-1.28947e-05	
40	1.000000e+04	-7.09712e-04,	-1.58966e-05	
41	1.258925e+04	-7.09765e-04,	-1.97448e-05	
42	1.584893e+04	-7.09848e-04,	-2.46439e-05	
43	1.995262e+04	-7.09980e-04,	-3.08541e-05	
44	2.511886e+04	-7.10190e-04,	-3.87052e-05	
45	3.162278e+04	-7.10521e-04,	-4.86128e-05	
46	3.981072e+04	-7.11046e-04,	-6.11000e-05	
47	5.011872e+04	-7.11877e-04,	-7.68226e-05	
48	6.309573e+04	-7.13193e-04,	-9.65996e-05	
49	7.943282e+04	-7.15274e-04,	-1.21448e-04	
50	1.000000e+05	-7.18562e-04,	-1.52619e-04	
51	1.258925e+05	-7.23745e-04,	-1.91631e-04	
52	1.584893e+05	-7.31893e-04,	-2.40280e-04	
53	1.995262e+05	-7.44641e-04,	-3.00612e-04	
54	2.511886e+05	-7.64440e-04,	-3.74789e-04	

Index   frequency       vin#branch                      
--------------------------------------------------------------------------------
55	3.162278e+05	-7.94841e-04,	-4.64776e-04	
56	3.981072e+05	-8.40716e-04,	-5.71741e-04	
57	5.011872e+05	-9.08160e-04,	-6.95066e-04	
58	6.309573e+05	-1.00363e-03,	-8.31115e-04	
59	7.943282e+05	-1.13183e-03,	-9.72383e-04	
60	1.000000e+06	-1.29253e-03,	-1.10836e-03	
61	1.258925e+06	-1.47798e-03,	-1.22938e-03	
62	1.584893e+06	-1.67391e-03,	-1.33242e-03	
63	1.995262e+06	-1.86528e-03,	-1.42520e-03	
64	2.511886e+06	-2.04361e-03,	-1.52481e-03	
65	3.162278e+06	-2.21114e-03,	-1.65213e-03	
66	3.981072e+06	-2.38083e-03,	-1.82595e-03	
67	5.011872e+06	-2.57426e-03,	-2.05912e-03	
68	6.309573e+06	-2.81982e-03,	-2.35574e-03	
69	7.943282e+06	-3.15071e-03,	-2.70757e-03	
70	1.000000e+07	-3.60049e-03,	-3.08900e-03	
71	1.258925e+07	-4.19323e-03,	-3.45316e-03	
72	1.584893e+07	-4.92824e-03,	-3.73526e-03	
73	1.995262e+07	-5.76663e-03,	-3.86945e-03	
74	2.511886e+07	-6.63351e-03,	-3.81612e-03	
75	3.162278e+07	-7.44237e-03,	-3.58208e-03	
76	3.981072e+07	-8.12755e-03,	-3.21617e-03	
77	5.011872e+07	-8.66190e-03,	-2.78448e-03	
78	6.309573e+07	-9.05236e-03,	-2.34520e-03	
79	7.943282e+07	-9.32428e-03,	-1.93668e-03	
80	1.000000e+08	-9.50738e-03,	-1.57786e-03	
v(in2)[40]/vin#branch[40]/(-1000) = 1.308316e+00,-3.15445e-02
max                 =  3.601849e+01 at=  5.011872e+03
lower               =  1.927288e+01
upper               =  1.331577e+06
Zin_TAB
Zin = -1308.32 + 31.5445 j
Zin_END
results_TAB
V-Gain = 63.2292
Bandwidth = 1.33156E+06
CO-lowerFreq = 19.2729
CO-7.5007higherFreq = 1.33158E+06
results_END
**************
cost_TAB
Cost = 2242.43
merit = 1948.1
cost_END
**************
simvalues_TAB
V-GaindB = 36.0185
CO-higherFreq = 1.33158E+06
CO-lowerFreq = 19.2729
simvalues_END
impedanceZ_TAB
Zin = -1308.32 + 31.5445 j
Zinabs = 1308.7
impedanceZ_END
Doing analysis at TEMP = 27.000000 and TNOM = 27.000000


No. of Data Rows : 1
	Node                                  Voltage
	----                                  -------
	----	-------
	out                              0.000000e+00
	emit2                            4.130430e+00
	emit                             3.873773e-01
	coll                             3.401989e+00
	base                             1.053801e+00
	in2                              0.000000e+00
	in                               0.000000e+00
	vcc                              1.200000e+01

	Source	Current
	------	-------

	vcc#branch                       -1.98570e-02
	vin#branch                       0.000000e+00

 BJT models (Bipolar Junction Transistor)
      model                bc557a                bc547a

       type                   pnp                   npn
       tnom                    27                    27
         is             2.059e-14             1.533e-14
         bf                 227.3                 178.7
         nf                 1.003                 1.002
        vaf                  37.2                  69.7
        ikf               0.08719                0.1216
        ise             2.971e-15             7.932e-16
         ne                 1.316                 1.436
         br                  7.69                 8.628
         nr                 1.007                 1.004
        var                 11.42                  44.7
        ikr               0.07646                0.1121
        isc             1.339e-14             8.305e-14
         nc                  1.15                 1.207
         rb                     1                     1
        irb                 1e-06                 1e-06
        rbm                     1                     1
         re                 0.688                0.6395
         rc                0.6437                0.6508
        cje               1.4e-11              1.61e-11
        vje                0.5912                0.4209
        mje                0.3572                0.3071
         tf             7.046e-10             4.995e-10
        xtf                 4.217                   139
        vtf                 5.367                 3.523
        itf                0.1947                0.7021
        ptf                     0                     0
        cjc             1.113e-11             4.388e-12
        vjc                   0.1                   0.2
        mjc                0.3414                0.2793
       xcjc                0.6288                0.6193
         tr                 0.001                 0.001
        cjs                     0                     0
        vjs                  0.75                  0.75
        mjs                     0                     0
        xtb                   1.5                   1.5
         eg                  1.11                  1.11
        xti                     3                     3
         fc                0.7947                0.7762
         kf                     0                     0
         af                     0                     0
        iss                     0                     0
         ns                     1                     1
       tlev                     0                     0
      tlevc                     0                     0
       tbf1                     0                     0
       tbf2                     0                     0
       tbr1                     0                     0
       tbr2                     0                     0
      tikf1                     0                     0
      tikf2                     0                     0
      tikr1                     0                     0
      tikr2                     0                     0
      tirb1                     0                     0
      tirb2                     0                     0
       tnc1                     0                     0
       tnc2                     0                     0
       tne1                     0                     0
       tne2                     0                     0
       tnf1                     0                     0
       tnf2                     0                     0
       tnr1                     0                     0
       tnr2                     0                     0
       trb1                     0                     0
       trb2                     0                     0
       trc1                     0                     0
       trc2                     0                     0
       tre1                     0                     0
       tre2                     0                     0
       trm1                     0                     0
       trm2                     0                     0
      tvaf1                     0                     0
      tvaf2                     0                     0
      tvar1                     0                     0
      tvar2                     0                     0
        ctc                     0                     0
        cte                     0                     0
        cts                     0                     0
       tvjc                     0                     0
       tvje                     0                     0
       tvjs                     0                     0
      titf1                     0                     0
      titf2                     0                     0
       ttf1                     0                     0
       ttf2                     0                     0
       ttr1                     0                     0
       ttr2                     0                     0
      tmje1                     0                     0
      tmje2                     0                     0
      tmjc1                     0                     0
      tmjc2                     0                     0
      tmjs1                     0                     0
      tmjs2                     0                     0
       tns1                     0                     0
       tns2                     0                     0
        nkf                   0.5                   0.5
       tis1                     0                     0
       tis2                     0                     0
      tise1                     0                     0
      tise2                     0                     0
      tisc1                     0                     0
      tisc2                     0                     0
    vbe_max                 1e+99                 1e+99
    vbc_max                 1e+99                 1e+99
    vce_max                 1e+99                 1e+99

 Capacitor models (Fixed capacitor)
      model                     C

        cap                     0
         cj                     0
       cjsw                     0
       defw                 1e-05
       defl                     0
     narrow                     0
      short                     0
        del                     0
        tc1                     0
        tc2                     0
         di                     0
      thick                     0
     bv_max                 1e+99

 Resistor models (Simple linear resistor)
      model                     R

        rsh                     0
     narrow                     0
      short                     0
        tc1                     0
        tc2                     0
        tce                     0
       defw                 1e-05
          l                 1e-05
         kf                     0
         af                     0
          r                     0
     bv_max                 1e+99
         lf                     1
         wf                     1
         ef                     1

 BJT: Bipolar Junction Transistor
     device                    q2                    q1
      model                bc557a                bc547a
         ic              0.017395            0.00214009
         ib           9.29452e-05           1.20054e-05
         ie            -0.0174879            -0.0021521
        vbe              0.716316              0.665036
        vbc              -3.39089              -2.34681
         gm              0.574869             0.0811201
        gpi            0.00354518            0.00046268
        gmu                 1e-12                 1e-12
         gx                     1                     1
         go           0.000454681            3.0138e-05
        cpi           4.78193e-10           9.42537e-11
        cmu           2.08089e-12           1.33521e-12
        cbx           1.22843e-12           8.20792e-13
       csub                     0                     0

 Capacitor: Fixed capacitor
     device                    co                    cb                    ci
      model                     C                     C                     C
capacitance                0.0006                0.0008                0.0008
      dtemp                     0                     0                     0
     bv_max                 1e+99                 1e+99                 1e+99
          i                     0                     0                     0
          p                     0                     0                    -0

 Resistor: Simple linear resistor
     device                    rl                  rout                    re
      model                     R                     R                     R
 resistance                     8                   450                   180
         ac                     8                   450                   180
      dtemp                     0                     0                     0
     bv_max                 1e+99                 1e+99                 1e+99
      noisy                     1                     1                     1
          i                     0            -0.0174879             0.0021521
          p                     0              0.137623           0.000833673

 Resistor: Simple linear resistor
     device                    rc                    r2                    r1
      model                     R                     R                     R
 resistance                  4200                  3400                 34000
         ac                  4200                  3400                 34000
      dtemp                     0                     0                     0
     bv_max                 1e+99                 1e+99                 1e+99
      noisy                     1                     1                     1
          i            0.00204715           0.000309942           0.000321947
          p             0.0176014           0.000326617             0.0035241

 Resistor: Simple linear resistor
     device                   rin
      model                     R
 resistance                   100
         ac                   100
      dtemp                     0
     bv_max                 1e+99
      noisy                     1
          i                     0
          p                     0

 Vsource: Independent voltage source
     device                   vin                   vcc
         dc                     0                    12
      acmag                     1                     0
      pulse                     0         -
                             0.01          
                             1000          
        sin                     0         -
                             0.01          
                             1000          
        exp                     0         -
                             0.01          
                             1000          
        pwl                     0         -
                             0.01          
                             1000          
       sffm                     0         -
                             0.01          
                             1000          
         am                     0         -
                             0.01          
                             1000          
    trnoise                     0         -
                             0.01          
                             1000          
   trrandom                     0         -
                             0.01          
                             1000          
          i                     0             -0.019857
          p                    -0              0.238284


Total analysis time (seconds) = 0.016

Total elapsed time (seconds) = 0.040 

Total DRAM available = 3935.883 MB.
DRAM currently available =  401.555 MB.
Total ngspice program size =   22.121 MB.
Resident set size =   10.184 MB.
Shared ngspice pages =    8.047 MB.
Text (code) pages =    5.070 MB.
Stack = 0 bytes.
Library pages =    2.379 MB.

