
Circuit: * ngspice simulation lab 3 group 28

Doing analysis at TEMP = 27.000000 and TNOM = 27.000000


No. of Data Rows : 1

TRANSIENT ANALYSIS

Doing analysis at TEMP = 27.000000 and TNOM = 27.000000


Initial Transient Solution
--------------------------

Node                                   Voltage
----                                   -------
1                                          230
4                                      19.5502
5                                      12.0007
2                                      20.2296
3                                    -0.679458
6                                      11.4007
7                                      10.8007
8                                      10.2006
9                                      9.60059
10                                     9.00055
11                                     8.40052
12                                     7.80048
13                                     7.20044
14                                     6.60041
15                                     6.00037
16                                     5.40033
17                                     4.80029
18                                     4.20026
19                                     3.60022
20                                     3.00018
21                                     2.40015
22                                     1.80011
23                                     1.20007
24                                    0.600037
etransf#branch                     -0.00256266
vs#branch                          0.000232969


No. of Data Rows : 1001
op1_TAB
maximum(v(4))-minimum(v(4)) = 1.447754e-01
mean(v(4)) = 1.946163e+01
op1_END
op2_TAB
maximum(v(5))-minimum(v(5)) = 9.368325e-03
mean(v(5)) = 1.199502e+01
op2_END

The file "sim3.ps" may be printed on a postscript printer.
sim3_FIG

The file "sim31.ps" may be printed on a postscript printer.
sim31_FIG
Doing analysis at TEMP = 27.000000 and TNOM = 27.000000


No. of Data Rows : 1
	Node                                  Voltage
	----                                  -------
	----	-------
	V(24)                            -2.92278e-20
	V(23)                            -5.84556e-20
	V(22)                            2.371641e-19
	V(21)                            1.256133e-19
	V(20)                            -1.26614e-19
	V(19)                            1.139092e-19
	V(18)                            1.632698e-19
	V(17)                            2.422802e-19
	V(16)                            2.507348e-19
	V(15)                            1.932389e-19
	V(14)                            3.137697e-20
	V(13)                            4.402526e-20
	V(12)                            -2.41312e-19
	V(11)                            -5.37077e-19
	V(10)                            -4.05848e-19
	V(9)                             -2.10969e-19
	V(8)                             -1.22932e-19
	V(7)                             9.688630e-20
	V(6)                             2.574053e-19
	V(3)                             -2.03191e-25
	V(2)                             -2.03191e-25
	V(5)                             -3.91208e-25
	V(4)                             -4.06383e-25
	V(1)                             0.000000e+00

	Source	Current
	------	-------

	@c1[i]                           0.000000e+00
	@d24[id]                         -2.92278e-32
	@d23[id]                         -2.92278e-32
	@d22[id]                         2.956197e-31
	@d21[id]                         -1.11551e-31
	@d20[id]                         -2.52227e-31
	@d19[id]                         2.405229e-31
	@d18[id]                         4.936054e-32
	@d17[id]                         7.901046e-32
	@d16[id]                         8.454559e-33
	@d15[id]                         -5.74959e-32
	@d14[id]                         -1.61862e-31
	@d13[id]                         1.264829e-32
	@d12[id]                         -2.85337e-31
	@d11[id]                         -2.95765e-31
	@d10[id]                         1.312289e-31
	@d9[id]                          1.948788e-31
	@d8[id]                          8.803674e-32
	@d7[id]                          2.198188e-31
	@d6[id]                          1.605190e-31
	@d5[id]                          -2.57406e-31
	@d4[id]                          2.031914e-37
	@d3[id]                          2.031914e-37
	@d2[id]                          2.031914e-37
	@d1[id]                          2.031914e-37
	@ftransf[i]                      0.000000e+00
	@r2[i]                           -2.38966e-31
	@r1[i]                           -5.07978e-29
	vs#branch                        0.000000e+00
	etransf#branch                   0.000000e+00

 Capacitor models (Fixed capacitor)
      model                     C

        cap                     0
         cj                     0
       cjsw                     0
       defw                 1e-05
       defl                     0
     narrow                     0
      short                     0
        del                     0
        tc1                     0
        tc2                     0
         di                     0
      thick                     0
     bv_max                 1e+99

 Diode models (Junction Diode model)
      model                   d28

      level                     1
         is                 1e-14
        jsw                     0
         rs                     0
        trs                     0
       trs2                     0
          n                     1
         ns                     1
         tt                     0
       ttt1                     0
       ttt2                     0
        cjo                     0
         vj                     1
          m                   0.5
        tm1                     0
        tm2                     0
        cjp                     0
        php                     1
       mjsw                  0.33
        ikf                     0
        ikr                     0
        nbv                     1
       area                     1
         pj                     0
       tlev                     0
      tlevc                     0
         eg                  1.11
        xti                     3
        cta                     0
        ctp                     0
        tpb                     0
       tphp                     0
       jtun                     0
     jtunsw                     0
       ntun                    30
     xtitun                     3
        keg                     1
         kf                     0
         af                     1
         fc                   0.5
        fcs                   0.5
         bv                     0
        ibv                 0.001
        tcv                     0
     fv_max                 1e+99
     bv_max                 1e+99
        isr                 1e-14
         nr                     1

 Resistor models (Simple linear resistor)
      model                     R

        rsh                     0
     narrow                     0
      short                     0
        tc1                     0
        tc2                     0
        tce                     0
       defw                 1e-05
          l                 1e-05
         kf                     0
         af                     0
          r                     0
     bv_max                 1e+99
         lf                     1
         wf                     1
         ef                     1

 Capacitor: Fixed capacitor
     device                    c1
      model                     C
capacitance                0.0025
      dtemp                     0
     bv_max                 1e+99
          i                     0
          p                    -0

 CCCS: Current controlled current source
     device               ftransf
          m                     0
          i                     0
          v                     0
          p                     0

 Diode: Junction Diode model
     device                   d24                   d23                   d22
      model                   d28                   d28                   d28
         vd          -2.92278e-20          -2.92278e-20            2.9562e-19
         id          -2.92278e-32          -2.92278e-32            2.9562e-31
         gd           1.38662e-12           1.38662e-12           1.38662e-12
         cd                     0                     0                     0

 Diode: Junction Diode model
     device                   d21                   d20                   d19
      model                   d28                   d28                   d28
         vd          -1.11551e-19          -2.52227e-19           2.40523e-19
         id          -1.11551e-31          -2.52227e-31           2.40523e-31
         gd           1.38662e-12           1.38662e-12           1.38662e-12
         cd                     0                     0                     0

 Diode: Junction Diode model
     device                   d18                   d17                   d16
      model                   d28                   d28                   d28
         vd           4.93605e-20           7.90105e-20           8.45456e-21
         id           4.93605e-32           7.90105e-32           8.45456e-33
         gd           1.38662e-12           1.38662e-12           1.38662e-12
         cd                     0                     0                     0

 Diode: Junction Diode model
     device                   d15                   d14                   d13
      model                   d28                   d28                   d28
         vd          -5.74959e-20          -1.61862e-19           1.26483e-20
         id          -5.74959e-32          -1.61862e-31           1.26483e-32
         gd           1.38662e-12           1.38662e-12           1.38662e-12
         cd                     0                     0                     0

 Diode: Junction Diode model
     device                   d12                   d11                   d10
      model                   d28                   d28                   d28
         vd          -2.85337e-19          -2.95765e-19           1.31229e-19
         id          -2.85337e-31          -2.95765e-31           1.31229e-31
         gd           1.38662e-12           1.38662e-12           1.38662e-12
         cd                     0                     0                     0

 Diode: Junction Diode model
     device                    d9                    d8                    d7
      model                   d28                   d28                   d28
         vd           1.94879e-19           8.80367e-20           2.19819e-19
         id           1.94879e-31           8.80367e-32           2.19819e-31
         gd           1.38662e-12           1.38662e-12           1.38662e-12
         cd                     0                     0                     0

 Diode: Junction Diode model
     device                    d6                    d5                    d4
      model                   d28                   d28                   d28
         vd           1.60519e-19          -2.57406e-19           2.03191e-25
         id           1.60519e-31          -2.57406e-31           2.03191e-37
         gd           1.38662e-12           1.38662e-12           1.38662e-12
         cd                     0                     0                     0

 Diode: Junction Diode model
     device                    d3                    d2                    d1
      model                   d28                   d28                   d28
         vd           2.03191e-25           2.03191e-25           2.03191e-25
         id           2.03191e-37           2.03191e-37           2.03191e-37
         gd           1.38662e-12           1.38662e-12           1.38662e-12
         cd                     0                     0                     0

 Resistor: Simple linear resistor
     device                    r2                    r1
      model                     R                     R
 resistance                 63500                  8000
         ac                 63500                  8000
      dtemp                     0                     0
     bv_max                 1e+99                 1e+99
      noisy                     1                     1
          i          -2.38966e-31          -5.07978e-29
          p           3.62614e-57           2.06434e-53

 VCVS: Voltage controlled voltage source
     device               etransf
          i                     0
          v                     0
          p                     0

 Vsource: Independent voltage source
     device                    vs
         dc                     0
      acmag                     0
      pulse                     0
                              230
                               50
                                0
                                0
                               90
        sin                     0
                              230
                               50
                                0
                                0
                               90
        exp                     0
                              230
                               50
                                0
                                0
                               90
        pwl                     0
                              230
                               50
                                0
                                0
                               90
       sffm                     0
                              230
                               50
                                0
                                0
                               90
         am                     0
                              230
                               50
                                0
                                0
                               90
    trnoise                     0
                              230
                               50
                                0
                                0
                               90
   trrandom                     0
                              230
                               50
                                0
                                0
                               90
          i                     0
          p                    -0


Total analysis time (seconds) = 0.08

Total elapsed time (seconds) = 0.101 

Total DRAM available = 3935.883 MB.
DRAM currently available =  233.258 MB.
Total ngspice program size =   23.008 MB.
Resident set size =   10.879 MB.
Shared ngspice pages =    7.930 MB.
Text (code) pages =    5.070 MB.
Stack = 0 bytes.
Library pages =    3.266 MB.

